data_C162H126N36O18_2018-02-15_10:32:30
#******************************************
#
# CIF file created by Zeo++
# Zeo++ is an open source package to
# analyze microporous materials
#
#*******************************************

_cell_length_a		29.1816   
_cell_length_b		29.1822   
_cell_length_c		30.119   
_cell_angle_alpha		90   
_cell_angle_beta		90   
_cell_angle_gamma		120   

_symmetry_space_group_name_H-M		'P1'
_symmetry_Int_Tables_number		1
_symmetry_cell_setting		Monoclinic

loop_
_symmetry_equiv_pos_as_xyz
'+x,+y,+z'

loop_
_atom_site_label
_atom_site_type_symbol
_atom_site_fract_x
_atom_site_fract_y
_atom_site_fract_z
1	C	0.276464	0.63339	0.967826
2	N	0.308109	0.611648	0.968059
3	C	0.361645	0.642096	0.301061
4	N	0.383393	0.695482	0.968019
5	C	0.352949	0.718574	0.96778
6	N	0.29956	0.686927	0.968115
7	C	0.394586	0.619771	0.97109
8	C	0.375282	0.773827	0.30454
9	C	0.221206	0.600469	0.971279
10	O	0.344351	0.794007	0.958669
11	O	0.201015	0.549371	0.958702
12	O	0.445677	0.650714	0.958503
13	C	0.717162	0.364588	0.996293
14	N	0.683653	0.384159	0.996234
15	C	0.630397	0.351516	0.329807
16	N	0.610839	0.298447	0.996253
17	C	0.643469	0.277824	0.996317
18	N	0.696543	0.31133	0.996074
19	C	0.595896	0.372034	0.995888
20	C	0.622871	0.222799	0.32885
21	C	0.772185	0.399018	0.995473
22	O	0.654399	0.204859	0.979414
23	O	0.790109	0.44851	0.97944
24	O	0.546269	0.340359	0.980164
25	C	0.577095	0.440767	0.012227
26	C	0.554576	0.445357	0.052214
27	C	0.517775	0.463526	0.052445
28	C	0.504572	0.478202	0.011361
29	C	0.528469	0.474922	0.30491
30	C	0.563946	0.455779	0.305256
31	H	0.58032	0.453041	0.276042
32	C	0.469417	0.498323	0.008266
33	C	0.488985	0.551665	0.020322
34	C	0.458051	0.575521	0.01406
35	C	0.407414	0.54723	0.327753
36	C	0.387067	0.493167	0.317667
37	C	0.417464	0.46814	0.323817
38	H	0.526297	0.573935	0.033144
39	H	0.473032	0.613923	0.023872
40	H	0.349989	0.472251	0.304167
41	H	0.564153	0.433838	0.081213
42	C	0.492922	0.465485	0.095016
43	H	0.505807	0.451043	0.123087
44	H	0.44997	0.441028	0.092508
45	H	0.50313	0.506122	0.102292
46	H	0.519899	0.486001	0.275183
47	C	0.394487	0.41132	0.311878
48	H	0.395261	0.389116	0.340758
49	H	0.417407	0.407137	0.285198
50	H	0.353513	0.393386	0.300652
51	N	0.376813	0.569891	0.320212
52	H	0.339016	0.547681	0.325986
53	N	0.610346	0.420891	0.012137
54	H	0.643208	0.440284	0.028883
55	C	0.554262	0.135305	0.011851
56	C	0.549705	0.108345	0.051923
57	C	0.531656	0.0534	0.052302
58	C	0.516997	0.025372	0.011289
59	C	0.520202	0.052383	0.304758
60	C	0.539267	0.106988	0.304954
61	H	0.541914	0.125967	0.275684
62	C	0.4969	0.970092	0.008344
63	C	0.443554	0.936355	0.020418
64	C	0.419654	0.881561	0.014183
65	C	0.447892	0.859169	0.327861
66	C	0.501947	0.89285	0.317719
67	C	0.527028	0.948274	0.323872
68	H	0.421305	0.951435	0.033214
69	H	0.381248	0.858172	0.024003
70	H	0.52284	0.876646	0.304249
71	H	0.561215	0.129549	0.080867
72	C	0.529769	0.026764	0.094954
73	H	0.544183	0.054194	0.122957
74	H	0.554284	0.008327	0.092533
75	H	0.489154	0.996314	0.102276
76	H	0.509119	0.032623	0.275081
77	C	0.583844	0.982073	0.311903
78	H	0.606078	0.005059	0.340768
79	H	0.588037	0.009167	0.285215
80	H	0.601743	0.959001	0.300678
81	N	0.42518	0.805902	0.320316
82	H	0.447378	0.790292	0.326052
83	N	0.573891	0.188406	0.011564
84	H	0.555019	0.20186	0.029059
85	C	0.859695	0.417924	0.011801
86	C	0.886645	0.440304	0.051881
87	C	0.941593	0.477201	0.052274
88	C	0.969641	0.490572	0.01127
89	C	0.942634	0.466803	0.304728
90	C	0.888026	0.431258	0.30491
91	H	0.869056	0.41494	0.275635
92	C	0.024925	0.525772	0.008345
93	C	0.058667	0.506181	0.020451
94	C	0.113468	0.537088	0.014236
95	C	0.135866	0.587732	0.327943
96	C	0.102182	0.608098	0.317787
97	C	0.046748	0.577725	0.323887
98	H	0.043586	0.468837	0.033211
99	H	0.136856	0.522068	0.024054
100	H	0.118384	0.645182	0.304298
101	H	0.86543	0.430621	0.080819
102	C	0.968208	0.501948	0.094933
103	H	0.940767	0.488933	0.122927
104	H	0.986648	0.544899	0.092512
105	H	0.99866	0.491786	0.10227
106	H	0.962407	0.475472	0.275059
107	C	0.012942	0.600723	0.311883
108	H	0.989907	0.599939	0.340725
109	H	0.985892	0.577832	0.285167
110	H	0.036016	0.641704	0.300682
111	N	0.189136	0.618287	0.320408
112	H	0.204742	0.656095	0.326133
113	N	0.806593	0.384437	0.011502
114	H	0.793143	0.352091	0.028967
115	C	0.276464	0.63339	0.301159
116	N	0.308109	0.611648	0.301392
117	C	0.361645	0.642096	0.634396
118	N	0.383393	0.695482	0.301352
119	C	0.352949	0.718574	0.301113
120	N	0.29956	0.686927	0.301447
121	C	0.394586	0.619771	0.304422
122	C	0.375282	0.773827	0.637872
123	C	0.221206	0.600469	0.30461
124	O	0.344351	0.794007	0.292002
125	O	0.201015	0.549371	0.292034
126	O	0.445677	0.650714	0.291835
127	C	0.717162	0.364588	0.329626
128	N	0.683653	0.384159	0.329565
129	C	0.630397	0.351516	0.663142
130	N	0.610839	0.298447	0.329587
131	C	0.643469	0.277824	0.329648
132	N	0.696543	0.31133	0.329406
133	C	0.595896	0.372034	0.32922
134	C	0.622871	0.222799	0.662186
135	C	0.772185	0.399018	0.328807
136	O	0.654399	0.204859	0.312748
137	O	0.790109	0.44851	0.312774
138	O	0.546269	0.340359	0.313495
139	C	0.577095	0.440767	0.345562
140	C	0.554576	0.445357	0.385547
141	C	0.517775	0.463526	0.385779
142	C	0.504572	0.478202	0.344696
143	C	0.528469	0.474922	0.638244
144	C	0.563946	0.455779	0.638589
145	H	0.58032	0.453041	0.609375
146	C	0.469417	0.498323	0.341601
147	C	0.488985	0.551665	0.353657
148	C	0.458051	0.575521	0.347395
149	C	0.407414	0.54723	0.661087
150	C	0.387067	0.493167	0.651
151	C	0.417464	0.46814	0.657152
152	H	0.526297	0.573935	0.366479
153	H	0.473032	0.613923	0.357206
154	H	0.349989	0.472251	0.6375
155	H	0.564153	0.433838	0.414548
156	C	0.492922	0.465485	0.42835
157	H	0.505807	0.451043	0.456422
158	H	0.44997	0.441028	0.42584
159	H	0.50313	0.506122	0.435625
160	H	0.519899	0.486001	0.608515
161	C	0.394487	0.41132	0.645213
162	H	0.395261	0.389116	0.674089
163	H	0.417407	0.407137	0.618532
164	H	0.353513	0.393386	0.633988
165	N	0.376813	0.569891	0.653547
166	H	0.339016	0.547681	0.65932
167	N	0.610346	0.420891	0.345472
168	H	0.643208	0.440284	0.362216
169	C	0.554262	0.135305	0.345184
170	C	0.549705	0.108345	0.385258
171	C	0.531656	0.0534	0.385636
172	C	0.516997	0.025372	0.344623
173	C	0.520202	0.052383	0.638091
174	C	0.539267	0.106988	0.638287
175	H	0.541914	0.125967	0.609017
176	C	0.4969	0.970092	0.341678
177	C	0.443554	0.936355	0.353753
178	C	0.419654	0.881561	0.347518
179	C	0.447892	0.859169	0.661193
180	C	0.501947	0.89285	0.651053
181	C	0.527028	0.948274	0.657205
182	H	0.421305	0.951435	0.366549
183	H	0.381248	0.858172	0.357339
184	H	0.52284	0.876646	0.637583
185	H	0.561215	0.129549	0.4142
186	C	0.529769	0.026764	0.428287
187	H	0.544183	0.054194	0.456289
188	H	0.554284	0.008327	0.425867
189	H	0.489154	0.996314	0.435611
190	H	0.509119	0.032623	0.608416
191	C	0.583844	0.982073	0.645236
192	H	0.606078	0.005059	0.674102
193	H	0.588037	0.009167	0.618549
194	H	0.601743	0.959001	0.634011
195	N	0.42518	0.805902	0.65365
196	H	0.447378	0.790292	0.659387
197	N	0.573891	0.188406	0.344898
198	H	0.555019	0.20186	0.362392
199	C	0.859695	0.417924	0.345134
200	C	0.886645	0.440304	0.385215
201	C	0.941593	0.477201	0.385607
202	C	0.969641	0.490572	0.344603
203	C	0.942634	0.466803	0.638061
204	C	0.888026	0.431258	0.638244
205	H	0.869056	0.41494	0.60897
206	C	0.024925	0.525772	0.341678
207	C	0.058667	0.506181	0.353786
208	C	0.113468	0.537088	0.347571
209	C	0.135866	0.587732	0.661276
210	C	0.102182	0.608098	0.65112
211	C	0.046748	0.577725	0.657222
212	H	0.043586	0.468837	0.366546
213	H	0.136856	0.522068	0.357389
214	H	0.118384	0.645182	0.63763
215	H	0.86543	0.430621	0.414153
216	C	0.968208	0.501948	0.428267
217	H	0.940767	0.488933	0.45626
218	H	0.986648	0.544899	0.425847
219	H	0.99866	0.491786	0.435605
220	H	0.962407	0.475472	0.608393
221	C	0.012942	0.600723	0.645216
222	H	0.989907	0.599939	0.674059
223	H	0.985892	0.577832	0.618502
224	H	0.036016	0.641704	0.634014
225	N	0.189136	0.618287	0.653743
226	H	0.204742	0.656095	0.659467
227	N	0.806593	0.384437	0.344835
228	H	0.793143	0.352091	0.362302
229	C	0.276464	0.63339	0.634492
230	N	0.308109	0.611648	0.634725
231	C	0.361645	0.642096	0.96773
232	N	0.383393	0.695482	0.634685
233	C	0.352949	0.718574	0.634446
234	N	0.29956	0.686927	0.634781
235	C	0.394586	0.619771	0.637756
236	C	0.375282	0.773827	0.971206
237	C	0.221206	0.600469	0.637945
238	O	0.344351	0.794007	0.625335
239	O	0.201015	0.549371	0.625368
240	O	0.445677	0.650714	0.625169
241	C	0.717162	0.364588	0.662959
242	N	0.683653	0.384159	0.6629
243	C	0.630397	0.351516	0.996476
244	N	0.610839	0.298447	0.662919
245	C	0.643469	0.277824	0.662983
246	N	0.696543	0.31133	0.66274
247	C	0.595896	0.372034	0.662554
248	C	0.622871	0.222799	0.99552
249	C	0.772185	0.399018	0.662143
250	O	0.654399	0.204859	0.646083
251	O	0.790109	0.44851	0.646106
252	O	0.546269	0.340359	0.64683
253	C	0.577095	0.440767	0.678896
254	C	0.554576	0.445357	0.718881
255	C	0.517775	0.463526	0.719113
256	C	0.504572	0.478202	0.67803
257	C	0.528469	0.474922	0.971578
258	C	0.563946	0.455779	0.971923
259	H	0.58032	0.453041	0.942709
260	C	0.469417	0.498323	0.674932
261	C	0.488985	0.551665	0.686991
262	C	0.458051	0.575521	0.680729
263	C	0.407414	0.54723	0.994421
264	C	0.387067	0.493167	0.984334
265	C	0.417464	0.46814	0.990486
266	H	0.526297	0.573935	0.699813
267	H	0.473032	0.613923	0.69054
268	H	0.349989	0.472251	0.970834
269	H	0.564153	0.433838	0.747879
270	C	0.492922	0.465485	0.761684
271	H	0.505807	0.451043	0.789753
272	H	0.44997	0.441028	0.759174
273	H	0.50313	0.506122	0.768959
274	H	0.519899	0.486001	0.941849
275	C	0.394487	0.41132	0.978547
276	H	0.395261	0.389116	0.007423
277	H	0.417407	0.407137	0.951866
278	H	0.353513	0.393386	0.967318
279	N	0.376813	0.569891	0.986881
280	H	0.339016	0.547681	0.992654
281	N	0.610346	0.420891	0.678806
282	H	0.643208	0.440284	0.69555
283	C	0.554262	0.135305	0.678518
284	C	0.549705	0.108345	0.718592
285	C	0.531656	0.0534	0.71897
286	C	0.516997	0.025372	0.677956
287	C	0.520202	0.052383	0.971425
288	C	0.539267	0.106988	0.971621
289	H	0.541914	0.125967	0.942351
290	C	0.4969	0.970092	0.675012
291	C	0.443554	0.936355	0.687087
292	C	0.419654	0.881561	0.680852
293	C	0.447892	0.859169	0.994527
294	C	0.501947	0.89285	0.984387
295	C	0.527028	0.948274	0.990539
296	H	0.421305	0.951435	0.699883
297	H	0.381248	0.858172	0.690673
298	H	0.52284	0.876646	0.970917
299	H	0.561215	0.129549	0.747534
300	C	0.529769	0.026764	0.761621
301	H	0.544183	0.054194	0.789623
302	H	0.554284	0.008327	0.759201
303	H	0.489154	0.996314	0.768945
304	H	0.509119	0.032623	0.94175
305	C	0.583844	0.982073	0.97857
306	H	0.606078	0.005059	0.007434
307	H	0.588037	0.009167	0.951883
308	H	0.601743	0.959001	0.967345
309	N	0.42518	0.805902	0.986984
310	H	0.447378	0.790292	0.992721
311	N	0.573891	0.188406	0.678232
312	H	0.555019	0.20186	0.695726
313	C	0.859695	0.417924	0.678468
314	C	0.886645	0.440304	0.718549
315	C	0.941593	0.477201	0.718941
316	C	0.969641	0.490572	0.677937
317	C	0.942634	0.466803	0.971395
318	C	0.888026	0.431258	0.971578
319	H	0.869056	0.41494	0.942304
320	C	0.024925	0.525772	0.675012
321	C	0.058667	0.506181	0.68712
322	C	0.113468	0.537088	0.680905
323	C	0.135866	0.587732	0.99461
324	C	0.102182	0.608098	0.984454
325	C	0.046748	0.577725	0.990553
326	H	0.043586	0.468837	0.699879
327	H	0.136856	0.522068	0.690723
328	H	0.118384	0.645182	0.970964
329	H	0.86543	0.430621	0.747487
330	C	0.968208	0.501948	0.761601
331	H	0.940767	0.488933	0.789594
332	H	0.986648	0.544899	0.759181
333	H	0.99866	0.491786	0.768939
334	H	0.962407	0.475472	0.941726
335	C	0.012942	0.600723	0.97855
336	H	0.989907	0.599939	0.007391
337	H	0.985892	0.577832	0.951836
338	H	0.036016	0.641704	0.967348
339	N	0.189136	0.618287	0.987077
340	H	0.204742	0.656095	0.992801
341	N	0.806593	0.384437	0.678169
342	H	0.793143	0.352091	0.695636
