data_C360H288N72_2018-02-15_10:38:40
#******************************************
#
# CIF file created by Zeo++
# Zeo++ is an open source package to
# analyze microporous materials
#
#*******************************************

_cell_length_a		29.523   
_cell_length_b		29.5229   
_cell_length_c		29.9378   
_cell_angle_alpha		90   
_cell_angle_beta		90   
_cell_angle_gamma		120   

_symmetry_space_group_name_H-M		'P1'
_symmetry_Int_Tables_number		1
_symmetry_cell_setting		Monoclinic

loop_
_symmetry_equiv_pos_as_xyz
'+x,+y,+z'

loop_
_atom_site_label
_atom_site_type_symbol
_atom_site_fract_x
_atom_site_fract_y
_atom_site_fract_z
1	C	0.02853	0.232867	0.350167
2	H	0.028044	0.387599	0.017124
3	C	0.02853	0.232867	0.683501
4	H	0.028044	0.387599	0.350457
5	C	0.02853	0.232867	0.016835
6	H	0.028044	0.387599	0.683789
7	C	0.028531	0.732869	0.350167
8	H	0.028043	0.8876	0.017124
9	C	0.028531	0.732869	0.683501
10	H	0.028043	0.8876	0.350457
11	C	0.028531	0.732869	0.016835
12	H	0.028043	0.8876	0.683789
13	C	0.028985	0.314718	0.025812
14	C	0.028985	0.314718	0.359145
15	C	0.028985	0.314718	0.692477
16	C	0.028987	0.814719	0.025812
17	C	0.028987	0.814719	0.359145
18	C	0.028987	0.814719	0.692477
19	C	0.200244	0.388774	0.017488
20	N	0.146996	0.36461	0.017852
21	C	0.11381	0.312063	0.017659
22	N	0.137976	0.282976	0.017986
23	C	0.190526	0.302332	0.017653
24	N	0.219611	0.355588	0.017838
25	C	0.311684	0.113476	0.028493
26	N	0.364431	0.145565	0.028099
27	C	0.389123	0.198789	0.028614
28	N	0.357048	0.219467	0.028283
29	C	0.30382	0.190926	0.028679
30	N	0.283143	0.138171	0.028182
31	C	0.27243	0.215181	0.02813
32	C	0.297426	0.269384	0.352555
33	C	0.269742	0.296261	0.350253
34	C	0.214521	0.270589	0.019791
35	C	0.187883	0.214854	0.025777
36	H	0.291387	0.335441	0.34404
37	H	0.336924	0.290906	0.347578
38	C	0.216946	0.188697	0.034765
39	C	0.129836	0.182915	0.019955
40	H	0.118499	0.193869	0.988885
41	H	0.110214	0.189055	0.048223
42	H	0.11503	0.141043	0.016908
43	C	0.190476	0.137206	0.058743
44	H	0.216352	0.134453	0.083251
45	H	0.177509	0.105357	0.03474
46	H	0.156773	0.131658	0.078129
47	C	0.287462	0.057834	0.027784
48	C	0.233208	0.02863	0.352425
49	C	0.206307	0.474069	0.350153
50	C	0.231991	0.444516	0.019458
51	C	0.287769	0.473615	0.025084
52	H	0.167074	0.456527	0.344204
53	H	0.211643	0.0466	0.347691
54	C	0.313986	0.02882	0.03412
55	C	0.319683	0.447555	0.018755
56	H	0.308243	0.42505	0.987803
57	H	0.31408	0.421995	0.047069
58	H	0.361473	0.474683	0.015194
59	C	0.365676	0.053799	0.057774
60	H	0.368495	0.082177	0.082573
61	H	0.397312	0.072962	0.033604
62	H	0.371552	0.025603	0.076758
63	C	0.444765	0.230178	0.028056
64	C	0.473967	0.205198	0.352405
65	C	0.058076	0.288081	0.019784
66	H	0.046066	0.211232	0.343907
67	H	0.455995	0.165717	0.347347
68	C	0.473767	0.285643	0.034797
69	C	0.055097	0.372777	0.020087
70	H	0.077364	0.384174	0.989009
71	H	0.080886	0.392332	0.048364
72	C	0.448753	0.312054	0.058883
73	H	0.420186	0.286132	0.083405
74	H	0.429796	0.325016	0.034946
75	H	0.476914	0.345749	0.078268
76	C	0.200244	0.388774	0.350821
77	N	0.146996	0.36461	0.351185
78	C	0.11381	0.312063	0.350992
79	N	0.137976	0.282976	0.351319
80	C	0.190526	0.302332	0.350985
81	N	0.219611	0.355588	0.351172
82	C	0.311684	0.113476	0.361824
83	N	0.364431	0.145565	0.361433
84	C	0.389123	0.198789	0.361948
85	N	0.357048	0.219467	0.361617
86	C	0.30382	0.190926	0.362011
87	N	0.283143	0.138171	0.361513
88	C	0.27243	0.215181	0.361463
89	C	0.297426	0.269384	0.685886
90	C	0.269742	0.296261	0.683585
91	C	0.214521	0.270589	0.353123
92	C	0.187883	0.214854	0.359112
93	H	0.291387	0.335441	0.677375
94	H	0.336924	0.290906	0.680909
95	C	0.216946	0.188697	0.368097
96	C	0.129836	0.182915	0.35329
97	H	0.118499	0.193869	0.322219
98	H	0.110214	0.189055	0.381555
99	H	0.11503	0.141043	0.35024
100	C	0.190476	0.137206	0.392077
101	H	0.216352	0.134453	0.416584
102	H	0.177509	0.105357	0.368074
103	H	0.156773	0.131658	0.41146
104	C	0.287462	0.057834	0.361116
105	C	0.233208	0.02863	0.68576
106	C	0.206307	0.474069	0.683488
107	C	0.231991	0.444516	0.352792
108	C	0.287769	0.473615	0.358417
109	H	0.167074	0.456527	0.677536
110	H	0.211643	0.0466	0.681026
111	C	0.313986	0.02882	0.367452
112	C	0.319683	0.447555	0.352087
113	H	0.308243	0.42505	0.321138
114	H	0.31408	0.421995	0.380403
115	H	0.361473	0.474683	0.348526
116	C	0.365676	0.053799	0.391105
117	H	0.368495	0.082177	0.415906
118	H	0.397312	0.072962	0.366938
119	H	0.371552	0.025603	0.410091
120	C	0.444765	0.230178	0.36139
121	C	0.473967	0.205198	0.685736
122	C	0.058076	0.288081	0.353116
123	H	0.046066	0.211232	0.677238
124	H	0.455995	0.165717	0.680682
125	C	0.473767	0.285643	0.36813
126	C	0.055097	0.372777	0.35342
127	H	0.077364	0.384174	0.322342
128	H	0.080886	0.392332	0.381699
129	C	0.448753	0.312054	0.392214
130	H	0.420186	0.286132	0.416738
131	H	0.429796	0.325016	0.368281
132	H	0.476914	0.345749	0.411601
133	C	0.200244	0.388774	0.684153
134	N	0.146996	0.36461	0.684517
135	C	0.11381	0.312063	0.684323
136	N	0.137976	0.282976	0.684651
137	C	0.190526	0.302332	0.68432
138	N	0.219611	0.355588	0.684504
139	C	0.311684	0.113476	0.695159
140	N	0.364431	0.145565	0.694765
141	C	0.389123	0.198789	0.695279
142	N	0.357048	0.219467	0.694949
143	C	0.30382	0.190926	0.695343
144	N	0.283143	0.138171	0.694848
145	C	0.27243	0.215181	0.694795
146	C	0.297426	0.269384	0.019221
147	C	0.269742	0.296261	0.01692
148	C	0.214521	0.270589	0.686458
149	C	0.187883	0.214854	0.692443
150	H	0.291387	0.335441	0.010708
151	H	0.336924	0.290906	0.014245
152	C	0.216946	0.188697	0.701432
153	C	0.129836	0.182915	0.686621
154	H	0.118499	0.193869	0.65555
155	H	0.110214	0.189055	0.714887
156	H	0.11503	0.141043	0.683572
157	C	0.190476	0.137206	0.725408
158	H	0.216352	0.134453	0.749916
159	H	0.177509	0.105357	0.701405
160	H	0.156773	0.131658	0.744795
161	C	0.287462	0.057834	0.694451
162	C	0.233208	0.02863	0.019093
163	C	0.206307	0.474069	0.016821
164	C	0.231991	0.444516	0.686124
165	C	0.287769	0.473615	0.691749
166	H	0.167074	0.456527	0.01087
167	H	0.211643	0.0466	0.01436
168	C	0.313986	0.02882	0.700784
169	C	0.319683	0.447555	0.685422
170	H	0.308243	0.42505	0.654471
171	H	0.31408	0.421995	0.713734
172	H	0.361473	0.474683	0.681858
173	C	0.365676	0.053799	0.72444
174	H	0.368495	0.082177	0.749238
175	H	0.397312	0.072962	0.70027
176	H	0.371552	0.025603	0.743422
177	C	0.444765	0.230178	0.694721
178	C	0.473967	0.205198	0.019071
179	C	0.058076	0.288081	0.686451
180	H	0.046066	0.211232	0.010574
181	H	0.455995	0.165717	0.014016
182	C	0.473767	0.285643	0.701462
183	C	0.055097	0.372777	0.686752
184	H	0.077364	0.384174	0.655674
185	H	0.080886	0.392332	0.71503
186	C	0.448753	0.312054	0.725549
187	H	0.420186	0.286132	0.75007
188	H	0.429796	0.325016	0.701612
189	H	0.476914	0.345749	0.744932
190	C	0.200244	0.888773	0.017488
191	N	0.146996	0.86461	0.017852
192	C	0.11381	0.812063	0.017659
193	N	0.137976	0.782975	0.017986
194	C	0.190526	0.802332	0.017653
195	N	0.21961	0.855587	0.017838
196	C	0.311684	0.613476	0.028493
197	N	0.364432	0.645567	0.028099
198	C	0.389123	0.698791	0.028614
199	N	0.35705	0.719469	0.028283
200	C	0.30382	0.690925	0.028679
201	N	0.283144	0.638171	0.028182
202	C	0.272431	0.715182	0.02813
203	C	0.297426	0.769384	0.352555
204	C	0.269743	0.796262	0.350253
205	C	0.214521	0.770589	0.019791
206	C	0.187883	0.714854	0.025777
207	H	0.291387	0.83544	0.34404
208	H	0.336925	0.790907	0.347578
209	C	0.216948	0.6887	0.034765
210	C	0.129836	0.682915	0.019955
211	H	0.1185	0.69387	0.988885
212	H	0.110215	0.689056	0.048222
213	H	0.115032	0.641046	0.016908
214	C	0.190478	0.637209	0.058743
215	H	0.216353	0.634455	0.083251
216	H	0.177508	0.605356	0.03474
217	H	0.156774	0.631659	0.078129
218	C	0.287463	0.557835	0.027784
219	C	0.233208	0.52863	0.352425
220	C	0.206307	0.974069	0.350153
221	C	0.231991	0.944516	0.019458
222	C	0.287769	0.973615	0.025084
223	H	0.167074	0.956527	0.344204
224	H	0.211644	0.546602	0.347691
225	C	0.313988	0.528822	0.03412
226	C	0.319685	0.947559	0.018755
227	H	0.308245	0.925054	0.987803
228	H	0.314082	0.921999	0.047069
229	H	0.361473	0.974683	0.015194
230	C	0.365677	0.553799	0.057774
231	H	0.368496	0.582178	0.082573
232	H	0.397312	0.572963	0.033604
233	H	0.371552	0.525603	0.076758
234	C	0.444765	0.730178	0.028056
235	C	0.473968	0.705197	0.352405
236	C	0.058078	0.788083	0.019784
237	H	0.046066	0.711232	0.343907
238	H	0.455994	0.665718	0.347347
239	C	0.473767	0.785643	0.034797
240	C	0.055096	0.872776	0.020087
241	H	0.077364	0.884174	0.989009
242	H	0.080885	0.892332	0.048365
243	C	0.448754	0.812055	0.058883
244	H	0.420186	0.786132	0.083405
245	H	0.429796	0.825017	0.034947
246	H	0.476915	0.84575	0.078268
247	C	0.200244	0.888773	0.350821
248	N	0.146996	0.86461	0.351185
249	C	0.11381	0.812063	0.350992
250	N	0.137976	0.782975	0.351319
251	C	0.190526	0.802332	0.350985
252	N	0.21961	0.855587	0.351172
253	C	0.311684	0.613476	0.361824
254	N	0.364432	0.645567	0.361433
255	C	0.389123	0.698791	0.361948
256	N	0.35705	0.719469	0.361617
257	C	0.30382	0.690925	0.362011
258	N	0.283144	0.638171	0.361513
259	C	0.272431	0.715182	0.361463
260	C	0.297426	0.769384	0.685886
261	C	0.269743	0.796262	0.683585
262	C	0.214521	0.770589	0.353123
263	C	0.187883	0.714854	0.359112
264	H	0.291387	0.83544	0.677375
265	H	0.336925	0.790907	0.680909
266	C	0.216948	0.6887	0.368097
267	C	0.129836	0.682915	0.35329
268	H	0.1185	0.69387	0.322219
269	H	0.110215	0.689056	0.381555
270	H	0.115032	0.641046	0.35024
271	C	0.190478	0.637209	0.392077
272	H	0.216353	0.634455	0.416584
273	H	0.177508	0.605356	0.368074
274	H	0.156774	0.631659	0.41146
275	C	0.287463	0.557835	0.361116
276	C	0.233208	0.52863	0.68576
277	C	0.206307	0.974069	0.683488
278	C	0.231991	0.944516	0.352792
279	C	0.287769	0.973615	0.358417
280	H	0.167074	0.956527	0.677536
281	H	0.211644	0.546602	0.681026
282	C	0.313988	0.528822	0.367452
283	C	0.319685	0.947559	0.352087
284	H	0.308245	0.925054	0.321138
285	H	0.314082	0.921999	0.380403
286	H	0.361473	0.974683	0.348526
287	C	0.365677	0.553799	0.391105
288	H	0.368496	0.582178	0.415906
289	H	0.397312	0.572963	0.366938
290	H	0.371552	0.525603	0.410091
291	C	0.444765	0.730178	0.36139
292	C	0.473968	0.705197	0.685736
293	C	0.058078	0.788083	0.353116
294	H	0.046066	0.711232	0.677238
295	H	0.455994	0.665718	0.680682
296	C	0.473767	0.785643	0.36813
297	C	0.055096	0.872776	0.35342
298	H	0.077364	0.884174	0.322342
299	H	0.080885	0.892332	0.381699
300	C	0.448754	0.812055	0.392214
301	H	0.420186	0.786132	0.416738
302	H	0.429796	0.825017	0.368281
303	H	0.476915	0.84575	0.411601
304	C	0.200244	0.888773	0.684153
305	N	0.146996	0.86461	0.684517
306	C	0.11381	0.812063	0.684323
307	N	0.137976	0.782975	0.684651
308	C	0.190526	0.802332	0.68432
309	N	0.21961	0.855587	0.684504
310	C	0.311684	0.613476	0.695159
311	N	0.364432	0.645567	0.694765
312	C	0.389123	0.698791	0.695279
313	N	0.35705	0.719469	0.694949
314	C	0.30382	0.690925	0.695343
315	N	0.283144	0.638171	0.694848
316	C	0.272431	0.715182	0.694795
317	C	0.297426	0.769384	0.019221
318	C	0.269743	0.796262	0.01692
319	C	0.214521	0.770589	0.686458
320	C	0.187883	0.714854	0.692443
321	H	0.291387	0.83544	0.010708
322	H	0.336925	0.790907	0.014245
323	C	0.216948	0.6887	0.701432
324	C	0.129836	0.682915	0.686621
325	H	0.1185	0.69387	0.65555
326	H	0.110215	0.689056	0.714887
327	H	0.115032	0.641046	0.683572
328	C	0.190478	0.637209	0.725408
329	H	0.216353	0.634455	0.749916
330	H	0.177508	0.605356	0.701405
331	H	0.156774	0.631659	0.744795
332	C	0.287463	0.557835	0.694451
333	C	0.233208	0.52863	0.019093
334	C	0.206307	0.974069	0.016821
335	C	0.231991	0.944516	0.686124
336	C	0.287769	0.973615	0.691749
337	H	0.167074	0.956527	0.01087
338	H	0.211644	0.546602	0.01436
339	C	0.313988	0.528822	0.700784
340	C	0.319685	0.947559	0.685422
341	H	0.308245	0.925054	0.654471
342	H	0.314082	0.921999	0.713734
343	H	0.361473	0.974683	0.681858
344	C	0.365677	0.553799	0.72444
345	H	0.368496	0.582178	0.749238
346	H	0.397312	0.572963	0.70027
347	H	0.371552	0.525603	0.743422
348	C	0.444765	0.730178	0.694721
349	C	0.473968	0.705197	0.019071
350	C	0.058078	0.788083	0.686451
351	H	0.046066	0.711232	0.010574
352	H	0.455994	0.665718	0.014016
353	C	0.473767	0.785643	0.701462
354	C	0.055096	0.872776	0.686752
355	H	0.077364	0.884174	0.655674
356	H	0.080885	0.892332	0.71503
357	C	0.448754	0.812055	0.725549
358	H	0.420186	0.786132	0.75007
359	H	0.429796	0.825017	0.701612
360	H	0.476915	0.84575	0.744932
361	C	0.700243	0.388774	0.017488
362	N	0.646994	0.36461	0.017852
363	C	0.61381	0.312063	0.017659
364	N	0.637975	0.282976	0.017986
365	C	0.690525	0.302332	0.017653
366	N	0.719609	0.355588	0.017838
367	C	0.811685	0.113476	0.028493
368	N	0.86443	0.145565	0.028099
369	C	0.889121	0.198789	0.028614
370	N	0.857049	0.219467	0.028283
371	C	0.803819	0.190926	0.028679
372	N	0.783142	0.138171	0.028182
373	C	0.772428	0.215181	0.02813
374	C	0.797426	0.269384	0.352555
375	C	0.769741	0.296261	0.350253
376	C	0.714521	0.270589	0.019791
377	C	0.687883	0.214854	0.025777
378	H	0.791387	0.335441	0.34404
379	H	0.836924	0.290906	0.347578
380	C	0.716945	0.188697	0.034765
381	C	0.629834	0.182915	0.019955
382	H	0.618497	0.193869	0.988885
383	H	0.610214	0.189055	0.048223
384	H	0.615029	0.141043	0.016908
385	C	0.690474	0.137206	0.058743
386	H	0.716351	0.134453	0.083251
387	H	0.67751	0.105357	0.03474
388	H	0.656772	0.131658	0.078129
389	C	0.787461	0.057834	0.027784
390	C	0.733209	0.02863	0.352425
391	C	0.706306	0.474069	0.350153
392	C	0.731989	0.444516	0.019458
393	C	0.787768	0.473615	0.025084
394	H	0.667074	0.456527	0.344204
395	H	0.711641	0.0466	0.347691
396	C	0.813986	0.02882	0.03412
397	C	0.819682	0.447555	0.018755
398	H	0.808243	0.42505	0.987803
399	H	0.81408	0.421995	0.047069
400	H	0.861472	0.474683	0.015194
401	C	0.865676	0.053799	0.057774
402	H	0.868494	0.082177	0.082573
403	H	0.897312	0.072962	0.033604
404	H	0.871552	0.025603	0.076758
405	C	0.944764	0.230178	0.028056
406	C	0.973967	0.205198	0.352405
407	C	0.528529	0.232867	0.350167
408	C	0.558077	0.288081	0.019784
409	C	0.528984	0.314718	0.025812
410	H	0.546066	0.211232	0.343907
411	H	0.955991	0.165717	0.347347
412	C	0.973767	0.285643	0.034797
413	C	0.555098	0.372777	0.020087
414	H	0.577363	0.384174	0.989009
415	H	0.580887	0.392332	0.048364
416	H	0.528043	0.387599	0.017124
417	C	0.948754	0.312054	0.058883
418	H	0.920185	0.286132	0.083405
419	H	0.929795	0.325016	0.034946
420	H	0.976915	0.345749	0.078268
421	C	0.700243	0.388774	0.350821
422	N	0.646994	0.36461	0.351185
423	C	0.61381	0.312063	0.350992
424	N	0.637975	0.282976	0.351319
425	C	0.690525	0.302332	0.350985
426	N	0.719609	0.355588	0.351172
427	C	0.811685	0.113476	0.361824
428	N	0.86443	0.145565	0.361433
429	C	0.889121	0.198789	0.361948
430	N	0.857049	0.219467	0.361617
431	C	0.803819	0.190926	0.362011
432	N	0.783142	0.138171	0.361513
433	C	0.772428	0.215181	0.361463
434	C	0.797426	0.269384	0.685886
435	C	0.769741	0.296261	0.683585
436	C	0.714521	0.270589	0.353123
437	C	0.687883	0.214854	0.359112
438	H	0.791387	0.335441	0.677375
439	H	0.836924	0.290906	0.680909
440	C	0.716945	0.188697	0.368097
441	C	0.629834	0.182915	0.35329
442	H	0.618497	0.193869	0.322219
443	H	0.610214	0.189055	0.381555
444	H	0.615029	0.141043	0.35024
445	C	0.690474	0.137206	0.392077
446	H	0.716351	0.134453	0.416584
447	H	0.67751	0.105357	0.368074
448	H	0.656772	0.131658	0.41146
449	C	0.787461	0.057834	0.361116
450	C	0.733209	0.02863	0.68576
451	C	0.706306	0.474069	0.683488
452	C	0.731989	0.444516	0.352792
453	C	0.787768	0.473615	0.358417
454	H	0.667074	0.456527	0.677536
455	H	0.711641	0.0466	0.681026
456	C	0.813986	0.02882	0.367452
457	C	0.819682	0.447555	0.352087
458	H	0.808243	0.42505	0.321138
459	H	0.81408	0.421995	0.380403
460	H	0.861472	0.474683	0.348526
461	C	0.865676	0.053799	0.391105
462	H	0.868494	0.082177	0.415906
463	H	0.897312	0.072962	0.366938
464	H	0.871552	0.025603	0.410091
465	C	0.944764	0.230178	0.36139
466	C	0.973967	0.205198	0.685736
467	C	0.528529	0.232867	0.683501
468	C	0.558077	0.288081	0.353116
469	C	0.528984	0.314718	0.359145
470	H	0.546066	0.211232	0.677238
471	H	0.955991	0.165717	0.680682
472	C	0.973767	0.285643	0.36813
473	C	0.555098	0.372777	0.35342
474	H	0.577363	0.384174	0.322342
475	H	0.580887	0.392332	0.381699
476	H	0.528043	0.387599	0.350457
477	C	0.948754	0.312054	0.392214
478	H	0.920185	0.286132	0.416738
479	H	0.929795	0.325016	0.368281
480	H	0.976915	0.345749	0.411601
481	C	0.700243	0.388774	0.684153
482	N	0.646994	0.36461	0.684517
483	C	0.61381	0.312063	0.684323
484	N	0.637975	0.282976	0.684651
485	C	0.690525	0.302332	0.68432
486	N	0.719609	0.355588	0.684504
487	C	0.811685	0.113476	0.695159
488	N	0.86443	0.145565	0.694765
489	C	0.889121	0.198789	0.695279
490	N	0.857049	0.219467	0.694949
491	C	0.803819	0.190926	0.695343
492	N	0.783142	0.138171	0.694848
493	C	0.772428	0.215181	0.694795
494	C	0.797426	0.269384	0.019221
495	C	0.769741	0.296261	0.01692
496	C	0.714521	0.270589	0.686458
497	C	0.687883	0.214854	0.692443
498	H	0.791387	0.335441	0.010708
499	H	0.836924	0.290906	0.014245
500	C	0.716945	0.188697	0.701432
501	C	0.629834	0.182915	0.686621
502	H	0.618497	0.193869	0.65555
503	H	0.610214	0.189055	0.714887
504	H	0.615029	0.141043	0.683572
505	C	0.690474	0.137206	0.725408
506	H	0.716351	0.134453	0.749916
507	H	0.67751	0.105357	0.701405
508	H	0.656772	0.131658	0.744795
509	C	0.787461	0.057834	0.694451
510	C	0.733209	0.02863	0.019093
511	C	0.706306	0.474069	0.016821
512	C	0.731989	0.444516	0.686124
513	C	0.787768	0.473615	0.691749
514	H	0.667074	0.456527	0.01087
515	H	0.711641	0.0466	0.01436
516	C	0.813986	0.02882	0.700784
517	C	0.819682	0.447555	0.685422
518	H	0.808243	0.42505	0.654471
519	H	0.81408	0.421995	0.713734
520	H	0.861472	0.474683	0.681858
521	C	0.865676	0.053799	0.72444
522	H	0.868494	0.082177	0.749238
523	H	0.897312	0.072962	0.70027
524	H	0.871552	0.025603	0.743422
525	C	0.944764	0.230178	0.694721
526	C	0.973967	0.205198	0.019071
527	C	0.528529	0.232867	0.016835
528	C	0.558077	0.288081	0.686451
529	C	0.528984	0.314718	0.692477
530	H	0.546066	0.211232	0.010574
531	H	0.955991	0.165717	0.014016
532	C	0.973767	0.285643	0.701462
533	C	0.555098	0.372777	0.686752
534	H	0.577363	0.384174	0.655674
535	H	0.580887	0.392332	0.71503
536	H	0.528043	0.387599	0.683789
537	C	0.948754	0.312054	0.725549
538	H	0.920185	0.286132	0.75007
539	H	0.929795	0.325016	0.701612
540	H	0.976915	0.345749	0.744932
541	C	0.700243	0.888773	0.017488
542	N	0.646995	0.86461	0.017852
543	C	0.613809	0.812063	0.017659
544	N	0.637976	0.782975	0.017986
545	C	0.690526	0.802332	0.017653
546	N	0.71961	0.855587	0.017838
547	C	0.811683	0.613476	0.028493
548	N	0.864432	0.645567	0.028099
549	C	0.889124	0.698791	0.028614
550	N	0.857049	0.719469	0.028283
551	C	0.80382	0.690925	0.028679
552	N	0.783144	0.638171	0.028182
553	C	0.772431	0.715182	0.02813
554	C	0.797424	0.769384	0.352555
555	C	0.769743	0.796262	0.350253
556	C	0.714521	0.770589	0.019791
557	C	0.687883	0.714854	0.025777
558	H	0.791388	0.83544	0.34404
559	H	0.836923	0.790907	0.347578
560	C	0.716948	0.6887	0.034765
561	C	0.629835	0.682915	0.019955
562	H	0.6185	0.69387	0.988885
563	H	0.610214	0.689056	0.048222
564	H	0.615031	0.641046	0.016908
565	C	0.690477	0.637209	0.058743
566	H	0.716354	0.634455	0.083251
567	H	0.677508	0.605356	0.03474
568	H	0.656774	0.631659	0.078129
569	C	0.787463	0.557835	0.027784
570	C	0.733207	0.52863	0.352425
571	C	0.706306	0.974069	0.350153
572	C	0.731991	0.944516	0.019458
573	C	0.787769	0.973615	0.025084
574	H	0.667074	0.956527	0.344204
575	H	0.711644	0.546602	0.347691
576	C	0.813986	0.528822	0.03412
577	C	0.819686	0.947559	0.018755
578	H	0.808244	0.925054	0.987803
579	H	0.81408	0.921999	0.047069
580	H	0.861473	0.974683	0.015194
581	C	0.865678	0.553799	0.057774
582	H	0.868497	0.582178	0.082573
583	H	0.897311	0.572963	0.033604
584	H	0.871554	0.525603	0.076758
585	C	0.944762	0.730178	0.028056
586	C	0.973968	0.705197	0.352405
587	C	0.528531	0.732869	0.350167
588	C	0.558077	0.788083	0.019784
589	C	0.528985	0.814719	0.025812
590	H	0.546066	0.711232	0.343907
591	H	0.955993	0.665718	0.347347
592	C	0.973765	0.785643	0.034797
593	C	0.555096	0.872776	0.020087
594	H	0.577364	0.884174	0.989009
595	H	0.580885	0.892332	0.048365
596	H	0.528044	0.8876	0.017124
597	C	0.948754	0.812055	0.058883
598	H	0.920187	0.786132	0.083405
599	H	0.929797	0.825017	0.034947
600	H	0.976914	0.84575	0.078268
601	C	0.700243	0.888773	0.350821
602	N	0.646995	0.86461	0.351185
603	C	0.613809	0.812063	0.350992
604	N	0.637976	0.782975	0.351319
605	C	0.690526	0.802332	0.350985
606	N	0.71961	0.855587	0.351172
607	C	0.811683	0.613476	0.361824
608	N	0.864432	0.645567	0.361433
609	C	0.889124	0.698791	0.361948
610	N	0.857049	0.719469	0.361617
611	C	0.80382	0.690925	0.362011
612	N	0.783144	0.638171	0.361513
613	C	0.772431	0.715182	0.361463
614	C	0.797424	0.769384	0.685886
615	C	0.769743	0.796262	0.683585
616	C	0.714521	0.770589	0.353123
617	C	0.687883	0.714854	0.359112
618	H	0.791388	0.83544	0.677375
619	H	0.836923	0.790907	0.680909
620	C	0.716948	0.6887	0.368097
621	C	0.629835	0.682915	0.35329
622	H	0.6185	0.69387	0.322219
623	H	0.610214	0.689056	0.381555
624	H	0.615031	0.641046	0.35024
625	C	0.690477	0.637209	0.392077
626	H	0.716354	0.634455	0.416584
627	H	0.677508	0.605356	0.368074
628	H	0.656774	0.631659	0.41146
629	C	0.787463	0.557835	0.361116
630	C	0.733207	0.52863	0.68576
631	C	0.706306	0.974069	0.683488
632	C	0.731991	0.944516	0.352792
633	C	0.787769	0.973615	0.358417
634	H	0.667074	0.956527	0.677536
635	H	0.711644	0.546602	0.681026
636	C	0.813986	0.528822	0.367452
637	C	0.819686	0.947559	0.352087
638	H	0.808244	0.925054	0.321138
639	H	0.81408	0.921999	0.380403
640	H	0.861473	0.974683	0.348526
641	C	0.865678	0.553799	0.391105
642	H	0.868497	0.582178	0.415906
643	H	0.897311	0.572963	0.366938
644	H	0.871554	0.525603	0.410091
645	C	0.944762	0.730178	0.36139
646	C	0.973968	0.705197	0.685736
647	C	0.528531	0.732869	0.683501
648	C	0.558077	0.788083	0.353116
649	C	0.528985	0.814719	0.359145
650	H	0.546066	0.711232	0.677238
651	H	0.955993	0.665718	0.680682
652	C	0.973765	0.785643	0.36813
653	C	0.555096	0.872776	0.35342
654	H	0.577364	0.884174	0.322342
655	H	0.580885	0.892332	0.381699
656	H	0.528044	0.8876	0.350457
657	C	0.948754	0.812055	0.392214
658	H	0.920187	0.786132	0.416738
659	H	0.929797	0.825017	0.368281
660	H	0.976914	0.84575	0.411601
661	C	0.700243	0.888773	0.684153
662	N	0.646995	0.86461	0.684517
663	C	0.613809	0.812063	0.684323
664	N	0.637976	0.782975	0.684651
665	C	0.690526	0.802332	0.68432
666	N	0.71961	0.855587	0.684504
667	C	0.811683	0.613476	0.695159
668	N	0.864432	0.645567	0.694765
669	C	0.889124	0.698791	0.695279
670	N	0.857049	0.719469	0.694949
671	C	0.80382	0.690925	0.695343
672	N	0.783144	0.638171	0.694848
673	C	0.772431	0.715182	0.694795
674	C	0.797424	0.769384	0.019221
675	C	0.769743	0.796262	0.01692
676	C	0.714521	0.770589	0.686458
677	C	0.687883	0.714854	0.692443
678	H	0.791388	0.83544	0.010708
679	H	0.836923	0.790907	0.014245
680	C	0.716948	0.6887	0.701432
681	C	0.629835	0.682915	0.686621
682	H	0.6185	0.69387	0.65555
683	H	0.610214	0.689056	0.714887
684	H	0.615031	0.641046	0.683572
685	C	0.690477	0.637209	0.725408
686	H	0.716354	0.634455	0.749916
687	H	0.677508	0.605356	0.701405
688	H	0.656774	0.631659	0.744795
689	C	0.787463	0.557835	0.694451
690	C	0.733207	0.52863	0.019093
691	C	0.706306	0.974069	0.016821
692	C	0.731991	0.944516	0.686124
693	C	0.787769	0.973615	0.691749
694	H	0.667074	0.956527	0.01087
695	H	0.711644	0.546602	0.01436
696	C	0.813986	0.528822	0.700784
697	C	0.819686	0.947559	0.685422
698	H	0.808244	0.925054	0.654471
699	H	0.81408	0.921999	0.713734
700	H	0.861473	0.974683	0.681858
701	C	0.865678	0.553799	0.72444
702	H	0.868497	0.582178	0.749238
703	H	0.897311	0.572963	0.70027
704	H	0.871554	0.525603	0.743422
705	C	0.944762	0.730178	0.694721
706	C	0.973968	0.705197	0.019071
707	C	0.528531	0.732869	0.016835
708	C	0.558077	0.788083	0.686451
709	C	0.528985	0.814719	0.692477
710	H	0.546066	0.711232	0.010574
711	H	0.955993	0.665718	0.014016
712	C	0.973765	0.785643	0.701462
713	C	0.555096	0.872776	0.686752
714	H	0.577364	0.884174	0.655674
715	H	0.580885	0.892332	0.71503
716	H	0.528044	0.8876	0.683789
717	C	0.948754	0.812055	0.725549
718	H	0.920187	0.786132	0.75007
719	H	0.929797	0.825017	0.701612
720	H	0.976914	0.84575	0.744932
