data_C288H144N144O72_2018-02-15_10:38:14
#******************************************
#
# CIF file created by Zeo++
# Zeo++ is an open source package to
# analyze microporous materials
#
#*******************************************

_cell_length_a		29.1144   
_cell_length_b		29.1144   
_cell_length_c		29.75   
_cell_angle_alpha		90   
_cell_angle_beta		90   
_cell_angle_gamma		120   

_symmetry_space_group_name_H-M		'P1'
_symmetry_Int_Tables_number		1
_symmetry_cell_setting		Monoclinic

loop_
_symmetry_equiv_pos_as_xyz
'+x,+y,+z'

loop_
_atom_site_label
_atom_site_type_symbol
_atom_site_fract_x
_atom_site_fract_y
_atom_site_fract_z
1	C	0.062085	0.277064	0.026978
2	N	0.035316	0.304347	0.358366
3	C	0.030357	0.220738	0.028846
4	C	0.049632	0.186263	0.034725
5	O	0.028847	0.144064	0.014412
6	C	0.046875	0.16947	0.112455
7	H	0.017063	0.127518	0.109162
8	H	0.027526	0.191973	0.121781
9	C	0.062085	0.277064	0.360312
10	N	0.035316	0.304347	0.6917
11	C	0.030357	0.220738	0.362181
12	C	0.049632	0.186263	0.36806
13	O	0.028847	0.144064	0.347744
14	C	0.046875	0.16947	0.445788
15	H	0.017063	0.127518	0.442497
16	H	0.027526	0.191973	0.455115
17	C	0.062085	0.277064	0.693646
18	N	0.035316	0.304347	0.025033
19	C	0.030357	0.220738	0.695515
20	C	0.049632	0.186263	0.701391
21	O	0.028847	0.144064	0.681078
22	C	0.046875	0.16947	0.779122
23	H	0.017063	0.127518	0.775828
24	H	0.027526	0.191973	0.78845
25	C	0.062084	0.777063	0.026978
26	N	0.035317	0.804346	0.358366
27	C	0.030356	0.720737	0.028846
28	C	0.049632	0.686263	0.034725
29	O	0.028847	0.644064	0.014412
30	C	0.046875	0.669471	0.112455
31	H	0.017063	0.627518	0.109162
32	H	0.027527	0.691975	0.121781
33	C	0.062084	0.777063	0.360312
34	N	0.035317	0.804346	0.6917
35	C	0.030356	0.720737	0.362181
36	C	0.049632	0.686263	0.36806
37	O	0.028847	0.644064	0.347744
38	C	0.046875	0.669471	0.445788
39	H	0.017063	0.627518	0.442497
40	H	0.027527	0.691975	0.455115
41	C	0.062084	0.777063	0.693646
42	N	0.035317	0.804346	0.025033
43	C	0.030356	0.720737	0.695515
44	C	0.049632	0.686263	0.701391
45	O	0.028847	0.644064	0.681078
46	C	0.046875	0.669471	0.779122
47	H	0.017063	0.627518	0.775828
48	H	0.027527	0.691975	0.78845
49	O	0.07739	0.189739	0.071857
50	H	0.073887	0.173435	0.139508
51	O	0.07739	0.189739	0.405189
52	H	0.073887	0.173435	0.472843
53	O	0.07739	0.189739	0.738524
54	H	0.073887	0.173435	0.806177
55	O	0.077389	0.689738	0.071857
56	H	0.073888	0.673437	0.139508
57	O	0.077389	0.689738	0.405189
58	H	0.073888	0.673437	0.472843
59	O	0.077389	0.689738	0.738524
60	H	0.073888	0.673437	0.806177
61	C	0.118196	0.307115	0.026562
62	O	0.123541	0.481613	0.014252
63	O	0.120373	0.432989	0.071527
64	H	0.107429	0.436253	0.139184
65	H	0.119169	0.493512	0.109086
66	C	0.118196	0.307115	0.359895
67	O	0.123541	0.481613	0.347586
68	O	0.120373	0.432989	0.40486
69	H	0.107429	0.436253	0.472517
70	H	0.119169	0.493512	0.44242
71	C	0.118196	0.307115	0.69323
72	O	0.123541	0.481613	0.68092
73	O	0.120373	0.432989	0.738194
74	H	0.107429	0.436253	0.805851
75	H	0.119169	0.493512	0.775754
76	C	0.118195	0.807114	0.026562
77	O	0.123542	0.981614	0.014252
78	O	0.120374	0.93299	0.071527
79	H	0.107431	0.936258	0.139184
80	H	0.11917	0.993512	0.109086
81	C	0.118195	0.807114	0.359895
82	O	0.123542	0.981614	0.347586
83	O	0.120374	0.93299	0.40486
84	H	0.107431	0.936258	0.472517
85	H	0.11917	0.993512	0.44242
86	C	0.118195	0.807114	0.69323
87	O	0.123542	0.981614	0.68092
88	O	0.120374	0.93299	0.738194
89	H	0.107431	0.936258	0.805851
90	H	0.11917	0.993512	0.775754
91	C	0.197291	0.392254	0.026565
92	N	0.143591	0.361059	0.026417
93	N	0.149392	0.28461	0.026423
94	C	0.203336	0.313158	0.026565
95	N	0.22584	0.366859	0.026429
96	C	0.312576	0.116219	0.025942
97	N	0.366539	0.14444	0.025951
98	C	0.39423	0.198429	0.02592
99	N	0.366008	0.224169	0.025916
100	C	0.312019	0.197872	0.025914
101	N	0.286278	0.14391	0.025944
102	C	0.233388	0.287099	0.026984
103	N	0.206101	0.233044	0.35845
104	C	0.228577	0.201953	0.358117
105	C	0.28433	0.226101	0.026081
106	N	0.311705	0.279941	0.02828
107	C	0.289716	0.311688	0.028783
108	H	0.204633	0.161673	0.356578
109	C	0.324208	0.365454	0.034368
110	O	0.36635	0.386875	0.013962
111	O	0.321149	0.390153	0.071396
112	C	0.341424	0.37997	0.112023
113	H	0.337808	0.403347	0.138974
114	H	0.38328	0.391768	0.10863
115	H	0.318696	0.338201	0.121565
116	C	0.223349	0.448366	0.026988
117	N	0.277404	0.475133	0.358437
118	C	0.308494	0.028696	0.358114
119	C	0.284346	0.060301	0.026109
120	N	0.230507	0.033834	0.028325
121	C	0.198754	0.480098	0.028786
122	H	0.348772	0.045032	0.356551
123	C	0.145007	0.460843	0.03452
124	C	0.130801	0.46331	0.112264
125	H	0.172588	0.482153	0.121705
126	C	0.481751	0.281869	0.358023
127	C	0.450148	0.226118	0.026074
128	N	0.476616	0.198754	0.028374
129	H	0.465414	0.305809	0.356433
130	C	0.197291	0.392254	0.359899
131	N	0.143591	0.361059	0.359751
132	N	0.149392	0.28461	0.359758
133	C	0.203336	0.313158	0.359899
134	N	0.22584	0.366859	0.359761
135	C	0.312576	0.116219	0.359277
136	N	0.366539	0.14444	0.359284
137	C	0.39423	0.198429	0.359253
138	N	0.366008	0.224169	0.35925
139	C	0.312019	0.197872	0.359247
140	N	0.286278	0.14391	0.359277
141	C	0.233388	0.287099	0.360319
142	N	0.206101	0.233044	0.691781
143	C	0.228577	0.201953	0.691451
144	C	0.28433	0.226101	0.359415
145	N	0.311705	0.279941	0.361613
146	C	0.289716	0.311688	0.362117
147	H	0.204633	0.161673	0.689912
148	C	0.324208	0.365454	0.3677
149	O	0.36635	0.386875	0.347297
150	O	0.321149	0.390153	0.404729
151	C	0.341424	0.37997	0.445358
152	H	0.337808	0.403347	0.472309
153	H	0.38328	0.391768	0.441963
154	H	0.318696	0.338201	0.4549
155	C	0.223349	0.448366	0.360322
156	N	0.277404	0.475133	0.691771
157	C	0.308494	0.028696	0.691445
158	C	0.284346	0.060301	0.359442
159	N	0.230507	0.033834	0.36166
160	C	0.198754	0.480098	0.362121
161	H	0.348772	0.045032	0.689885
162	C	0.145007	0.460843	0.367855
163	C	0.130801	0.46331	0.445596
164	H	0.172588	0.482153	0.455038
165	C	0.481751	0.281869	0.691357
166	C	0.450148	0.226118	0.359408
167	N	0.476616	0.198754	0.361707
168	H	0.465414	0.305809	0.689767
169	C	0.197291	0.392254	0.693233
170	N	0.143591	0.361059	0.693085
171	N	0.149392	0.28461	0.693092
172	C	0.203336	0.313158	0.693233
173	N	0.22584	0.366859	0.693095
174	C	0.312576	0.116219	0.692611
175	N	0.366539	0.14444	0.692618
176	C	0.39423	0.198429	0.692587
177	N	0.366008	0.224169	0.692584
178	C	0.312019	0.197872	0.692581
179	N	0.286278	0.14391	0.692611
180	C	0.233388	0.287099	0.693653
181	N	0.206101	0.233044	0.025115
182	C	0.228577	0.201953	0.024783
183	C	0.28433	0.226101	0.692749
184	N	0.311705	0.279941	0.694947
185	C	0.289716	0.311688	0.695451
186	H	0.204633	0.161673	0.023245
187	C	0.324208	0.365454	0.701035
188	O	0.36635	0.386875	0.680631
189	O	0.321149	0.390153	0.738063
190	C	0.341424	0.37997	0.778692
191	H	0.337808	0.403347	0.805639
192	H	0.38328	0.391768	0.775297
193	H	0.318696	0.338201	0.788231
194	C	0.223349	0.448366	0.693656
195	N	0.277404	0.475133	0.025102
196	C	0.308494	0.028696	0.024779
197	C	0.284346	0.060301	0.692776
198	N	0.230507	0.033834	0.694994
199	C	0.198754	0.480098	0.695455
200	H	0.348772	0.045032	0.023217
201	C	0.145007	0.460843	0.701186
202	C	0.130801	0.46331	0.77893
203	H	0.172588	0.482153	0.788372
204	C	0.481751	0.281869	0.024689
205	C	0.450148	0.226118	0.692742
206	N	0.476616	0.198754	0.695041
207	H	0.465414	0.305809	0.0231
208	C	0.197291	0.892254	0.026565
209	N	0.143592	0.861061	0.026417
210	N	0.149392	0.78461	0.026423
211	C	0.203336	0.813158	0.026565
212	N	0.22584	0.866859	0.026429
213	C	0.312576	0.616218	0.025942
214	N	0.366539	0.644441	0.025951
215	C	0.394231	0.698431	0.02592
216	N	0.366009	0.724171	0.025916
217	C	0.312019	0.697872	0.025914
218	N	0.286278	0.64391	0.025944
219	C	0.233389	0.787101	0.026984
220	N	0.206101	0.733043	0.35845
221	C	0.228577	0.701953	0.358117
222	C	0.284331	0.726103	0.026081
223	N	0.311706	0.779942	0.02828
224	C	0.289715	0.811687	0.028783
225	H	0.204633	0.661674	0.356578
226	C	0.324208	0.865455	0.034368
227	O	0.36635	0.886876	0.013962
228	O	0.321149	0.890152	0.071396
229	C	0.341424	0.879971	0.112023
230	H	0.337808	0.903347	0.138974
231	H	0.383281	0.89177	0.10863
232	H	0.318695	0.8382	0.121565
233	C	0.223349	0.948366	0.026988
234	N	0.277404	0.975133	0.358437
235	C	0.308493	0.528695	0.358114
236	C	0.284346	0.560301	0.026109
237	N	0.230508	0.533835	0.028325
238	C	0.198754	0.980099	0.028786
239	H	0.348771	0.545031	0.356551
240	C	0.145007	0.960843	0.03452
241	C	0.130801	0.96331	0.112264
242	H	0.172588	0.982153	0.121705
243	C	0.481752	0.78187	0.358023
244	C	0.450148	0.726119	0.026074
245	N	0.476619	0.698757	0.028374
246	H	0.465414	0.805809	0.356433
247	C	0.197291	0.892254	0.359899
248	N	0.143592	0.861061	0.359751
249	N	0.149392	0.78461	0.359758
250	C	0.203336	0.813158	0.359899
251	N	0.22584	0.866859	0.359761
252	C	0.312576	0.616218	0.359277
253	N	0.366539	0.644441	0.359284
254	C	0.394231	0.698431	0.359253
255	N	0.366009	0.724171	0.35925
256	C	0.312019	0.697872	0.359247
257	N	0.286278	0.64391	0.359277
258	C	0.233389	0.787101	0.360319
259	N	0.206101	0.733043	0.691781
260	C	0.228577	0.701953	0.691451
261	C	0.284331	0.726103	0.359415
262	N	0.311706	0.779942	0.361613
263	C	0.289715	0.811687	0.362117
264	H	0.204633	0.661674	0.689912
265	C	0.324208	0.865455	0.3677
266	O	0.36635	0.886876	0.347297
267	O	0.321149	0.890152	0.404729
268	C	0.341424	0.879971	0.445358
269	H	0.337808	0.903347	0.472309
270	H	0.383281	0.89177	0.441963
271	H	0.318695	0.8382	0.4549
272	C	0.223349	0.948366	0.360322
273	N	0.277404	0.975133	0.691771
274	C	0.308493	0.528695	0.691445
275	C	0.284346	0.560301	0.359442
276	N	0.230508	0.533835	0.36166
277	C	0.198754	0.980099	0.362121
278	H	0.348771	0.545031	0.689885
279	C	0.145007	0.960843	0.367855
280	C	0.130801	0.96331	0.445596
281	H	0.172588	0.982153	0.455038
282	C	0.481752	0.78187	0.691357
283	C	0.450148	0.726119	0.359408
284	N	0.476619	0.698757	0.361707
285	H	0.465414	0.805809	0.689767
286	C	0.197291	0.892254	0.693233
287	N	0.143592	0.861061	0.693085
288	N	0.149392	0.78461	0.693092
289	C	0.203336	0.813158	0.693233
290	N	0.22584	0.866859	0.693095
291	C	0.312576	0.616218	0.692611
292	N	0.366539	0.644441	0.692618
293	C	0.394231	0.698431	0.692587
294	N	0.366009	0.724171	0.692584
295	C	0.312019	0.697872	0.692581
296	N	0.286278	0.64391	0.692611
297	C	0.233389	0.787101	0.693653
298	N	0.206101	0.733043	0.025115
299	C	0.228577	0.701953	0.024783
300	C	0.284331	0.726103	0.692749
301	N	0.311706	0.779942	0.694947
302	C	0.289715	0.811687	0.695451
303	H	0.204633	0.661674	0.023245
304	C	0.324208	0.865455	0.701035
305	O	0.36635	0.886876	0.680631
306	O	0.321149	0.890152	0.738063
307	C	0.341424	0.879971	0.778692
308	H	0.337808	0.903347	0.805639
309	H	0.383281	0.89177	0.775297
310	H	0.318695	0.8382	0.788231
311	C	0.223349	0.948366	0.693656
312	N	0.277404	0.975133	0.025102
313	C	0.308493	0.528695	0.024779
314	C	0.284346	0.560301	0.692776
315	N	0.230508	0.533835	0.694994
316	C	0.198754	0.980099	0.695455
317	H	0.348771	0.545031	0.023217
318	C	0.145007	0.960843	0.701186
319	C	0.130801	0.96331	0.77893
320	H	0.172588	0.982153	0.788372
321	C	0.481752	0.78187	0.024689
322	C	0.450148	0.726119	0.692742
323	N	0.476619	0.698757	0.695041
324	H	0.465414	0.805809	0.0231
325	C	0.697291	0.392254	0.026565
326	N	0.643592	0.361059	0.026417
327	C	0.618197	0.307115	0.026562
328	N	0.649391	0.28461	0.026423
329	C	0.703336	0.313158	0.026565
330	N	0.725841	0.366859	0.026429
331	C	0.812575	0.116219	0.025942
332	N	0.866538	0.14444	0.025951
333	C	0.89423	0.198429	0.02592
334	N	0.866007	0.224169	0.025916
335	C	0.812019	0.197872	0.025914
336	N	0.786278	0.14391	0.025944
337	C	0.733388	0.287099	0.026984
338	N	0.706103	0.233044	0.35845
339	C	0.728577	0.201953	0.358117
340	C	0.78433	0.226101	0.026081
341	N	0.811707	0.279941	0.02828
342	C	0.789716	0.311688	0.028783
343	H	0.704631	0.161673	0.356578
344	C	0.824207	0.365454	0.034368
345	O	0.866348	0.386875	0.013962
346	O	0.821148	0.390153	0.071396
347	C	0.841425	0.37997	0.112023
348	H	0.837809	0.403347	0.138974
349	H	0.883279	0.391768	0.10863
350	H	0.818697	0.338201	0.121565
351	C	0.723348	0.448366	0.026988
352	N	0.777402	0.475133	0.358437
353	C	0.808495	0.028696	0.358114
354	C	0.784348	0.060301	0.026109
355	N	0.730509	0.033834	0.028325
356	C	0.698754	0.480098	0.028786
357	H	0.84877	0.045032	0.356551
358	C	0.645007	0.460843	0.03452
359	O	0.623542	0.481613	0.014252
360	O	0.620374	0.432989	0.071527
361	C	0.630801	0.46331	0.112264
362	H	0.607429	0.436253	0.139184
363	H	0.61917	0.493512	0.109086
364	H	0.672588	0.482153	0.121705
365	C	0.562085	0.277064	0.026978
366	N	0.535317	0.304347	0.358366
367	C	0.981752	0.281869	0.358023
368	C	0.950147	0.226118	0.026074
369	N	0.976616	0.198754	0.028374
370	C	0.530357	0.220738	0.028846
371	H	0.965413	0.305809	0.356433
372	C	0.549631	0.186263	0.034725
373	O	0.528847	0.144064	0.014412
374	O	0.57739	0.189739	0.071857
375	C	0.546874	0.16947	0.112455
376	H	0.573885	0.173435	0.139508
377	H	0.517064	0.127518	0.109162
378	H	0.527525	0.191973	0.121781
379	C	0.697291	0.392254	0.359899
380	N	0.643592	0.361059	0.359751
381	C	0.618197	0.307115	0.359895
382	N	0.649391	0.28461	0.359758
383	C	0.703336	0.313158	0.359899
384	N	0.725841	0.366859	0.359761
385	C	0.812575	0.116219	0.359277
386	N	0.866538	0.14444	0.359284
387	C	0.89423	0.198429	0.359253
388	N	0.866007	0.224169	0.35925
389	C	0.812019	0.197872	0.359247
390	N	0.786278	0.14391	0.359277
391	C	0.733388	0.287099	0.360319
392	N	0.706103	0.233044	0.691781
393	C	0.728577	0.201953	0.691451
394	C	0.78433	0.226101	0.359415
395	N	0.811707	0.279941	0.361613
396	C	0.789716	0.311688	0.362117
397	H	0.704631	0.161673	0.689912
398	C	0.824207	0.365454	0.3677
399	O	0.866348	0.386875	0.347297
400	O	0.821148	0.390153	0.404729
401	C	0.841425	0.37997	0.445358
402	H	0.837809	0.403347	0.472309
403	H	0.883279	0.391768	0.441963
404	H	0.818697	0.338201	0.4549
405	C	0.723348	0.448366	0.360322
406	N	0.777402	0.475133	0.691771
407	C	0.808495	0.028696	0.691445
408	C	0.784348	0.060301	0.359442
409	N	0.730509	0.033834	0.36166
410	C	0.698754	0.480098	0.362121
411	H	0.84877	0.045032	0.689885
412	C	0.645007	0.460843	0.367855
413	O	0.623542	0.481613	0.347586
414	O	0.620374	0.432989	0.40486
415	C	0.630801	0.46331	0.445596
416	H	0.607429	0.436253	0.472517
417	H	0.61917	0.493512	0.44242
418	H	0.672588	0.482153	0.455038
419	C	0.562085	0.277064	0.360312
420	N	0.535317	0.304347	0.6917
421	C	0.981752	0.281869	0.691357
422	C	0.950147	0.226118	0.359408
423	N	0.976616	0.198754	0.361707
424	C	0.530357	0.220738	0.362181
425	H	0.965413	0.305809	0.689767
426	C	0.549631	0.186263	0.36806
427	O	0.528847	0.144064	0.347744
428	O	0.57739	0.189739	0.405189
429	C	0.546874	0.16947	0.445788
430	H	0.573885	0.173435	0.472843
431	H	0.517064	0.127518	0.442497
432	H	0.527525	0.191973	0.455115
433	C	0.697291	0.392254	0.693233
434	N	0.643592	0.361059	0.693085
435	C	0.618197	0.307115	0.69323
436	N	0.649391	0.28461	0.693092
437	C	0.703336	0.313158	0.693233
438	N	0.725841	0.366859	0.693095
439	C	0.812575	0.116219	0.692611
440	N	0.866538	0.14444	0.692618
441	C	0.89423	0.198429	0.692587
442	N	0.866007	0.224169	0.692584
443	C	0.812019	0.197872	0.692581
444	N	0.786278	0.14391	0.692611
445	C	0.733388	0.287099	0.693653
446	N	0.706103	0.233044	0.025115
447	C	0.728577	0.201953	0.024783
448	C	0.78433	0.226101	0.692749
449	N	0.811707	0.279941	0.694947
450	C	0.789716	0.311688	0.695451
451	H	0.704631	0.161673	0.023245
452	C	0.824207	0.365454	0.701035
453	O	0.866348	0.386875	0.680631
454	O	0.821148	0.390153	0.738063
455	C	0.841425	0.37997	0.778692
456	H	0.837809	0.403347	0.805639
457	H	0.883279	0.391768	0.775297
458	H	0.818697	0.338201	0.788231
459	C	0.723348	0.448366	0.693656
460	N	0.777402	0.475133	0.025102
461	C	0.808495	0.028696	0.024779
462	C	0.784348	0.060301	0.692776
463	N	0.730509	0.033834	0.694994
464	C	0.698754	0.480098	0.695455
465	H	0.84877	0.045032	0.023217
466	C	0.645007	0.460843	0.701186
467	O	0.623542	0.481613	0.68092
468	O	0.620374	0.432989	0.738194
469	C	0.630801	0.46331	0.77893
470	H	0.607429	0.436253	0.805851
471	H	0.61917	0.493512	0.775754
472	H	0.672588	0.482153	0.788372
473	C	0.562085	0.277064	0.693646
474	N	0.535317	0.304347	0.025033
475	C	0.981752	0.281869	0.024689
476	C	0.950147	0.226118	0.692742
477	N	0.976616	0.198754	0.695041
478	C	0.530357	0.220738	0.695515
479	H	0.965413	0.305809	0.0231
480	C	0.549631	0.186263	0.701391
481	O	0.528847	0.144064	0.681078
482	O	0.57739	0.189739	0.738524
483	C	0.546874	0.16947	0.779122
484	H	0.573885	0.173435	0.806177
485	H	0.517064	0.127518	0.775828
486	H	0.527525	0.191973	0.78845
487	C	0.697291	0.892254	0.026565
488	N	0.643592	0.861061	0.026417
489	C	0.618195	0.807114	0.026562
490	N	0.649392	0.78461	0.026423
491	C	0.703336	0.813158	0.026565
492	N	0.725841	0.866859	0.026429
493	C	0.812574	0.616218	0.025942
494	N	0.866539	0.644441	0.025951
495	C	0.894231	0.698431	0.02592
496	N	0.866008	0.724171	0.025916
497	C	0.81202	0.697872	0.025914
498	N	0.786278	0.64391	0.025944
499	C	0.73339	0.787101	0.026984
500	N	0.706101	0.733043	0.35845
501	C	0.728577	0.701953	0.358117
502	C	0.784331	0.726103	0.026081
503	N	0.811707	0.779942	0.02828
504	C	0.789715	0.811687	0.028783
505	H	0.704631	0.661674	0.356578
506	C	0.824207	0.865455	0.034368
507	O	0.866349	0.886876	0.013962
508	O	0.821148	0.890152	0.071396
509	C	0.841426	0.879971	0.112023
510	H	0.837809	0.903347	0.138974
511	H	0.88328	0.89177	0.10863
512	H	0.818696	0.8382	0.121565
513	C	0.72335	0.948366	0.026988
514	N	0.777404	0.975133	0.358437
515	C	0.808494	0.528695	0.358114
516	C	0.784348	0.560301	0.026109
517	N	0.730509	0.533835	0.028325
518	C	0.698754	0.980099	0.028786
519	H	0.84877	0.545031	0.356551
520	C	0.645007	0.960843	0.03452
521	O	0.623542	0.981614	0.014252
522	O	0.620373	0.93299	0.071527
523	C	0.630802	0.96331	0.112264
524	H	0.607431	0.936258	0.139184
525	H	0.619169	0.993512	0.109086
526	H	0.672588	0.982153	0.121705
527	C	0.562084	0.777063	0.026978
528	N	0.535316	0.804346	0.358366
529	C	0.981753	0.78187	0.358023
530	C	0.950147	0.726119	0.026074
531	N	0.976618	0.698757	0.028374
532	C	0.530356	0.720737	0.028846
533	H	0.965413	0.805809	0.356433
534	C	0.549632	0.686263	0.034725
535	O	0.528847	0.644064	0.014412
536	O	0.577389	0.689738	0.071857
537	C	0.546875	0.669471	0.112455
538	H	0.573888	0.673437	0.139508
539	H	0.517063	0.627518	0.109162
540	H	0.527527	0.691975	0.121781
541	C	0.697291	0.892254	0.359899
542	N	0.643592	0.861061	0.359751
543	C	0.618195	0.807114	0.359895
544	N	0.649392	0.78461	0.359758
545	C	0.703336	0.813158	0.359899
546	N	0.725841	0.866859	0.359761
547	C	0.812574	0.616218	0.359277
548	N	0.866539	0.644441	0.359284
549	C	0.894231	0.698431	0.359253
550	N	0.866008	0.724171	0.35925
551	C	0.81202	0.697872	0.359247
552	N	0.786278	0.64391	0.359277
553	C	0.73339	0.787101	0.360319
554	N	0.706101	0.733043	0.691781
555	C	0.728577	0.701953	0.691451
556	C	0.784331	0.726103	0.359415
557	N	0.811707	0.779942	0.361613
558	C	0.789715	0.811687	0.362117
559	H	0.704631	0.661674	0.689912
560	C	0.824207	0.865455	0.3677
561	O	0.866349	0.886876	0.347297
562	O	0.821148	0.890152	0.404729
563	C	0.841426	0.879971	0.445358
564	H	0.837809	0.903347	0.472309
565	H	0.88328	0.89177	0.441963
566	H	0.818696	0.8382	0.4549
567	C	0.72335	0.948366	0.360322
568	N	0.777404	0.975133	0.691771
569	C	0.808494	0.528695	0.691445
570	C	0.784348	0.560301	0.359442
571	N	0.730509	0.533835	0.36166
572	C	0.698754	0.980099	0.362121
573	H	0.84877	0.545031	0.689885
574	C	0.645007	0.960843	0.367855
575	O	0.623542	0.981614	0.347586
576	O	0.620373	0.93299	0.40486
577	C	0.630802	0.96331	0.445596
578	H	0.607431	0.936258	0.472517
579	H	0.619169	0.993512	0.44242
580	H	0.672588	0.982153	0.455038
581	C	0.562084	0.777063	0.360312
582	N	0.535316	0.804346	0.6917
583	C	0.981753	0.78187	0.691357
584	C	0.950147	0.726119	0.359408
585	N	0.976618	0.698757	0.361707
586	C	0.530356	0.720737	0.362181
587	H	0.965413	0.805809	0.689767
588	C	0.549632	0.686263	0.36806
589	O	0.528847	0.644064	0.347744
590	O	0.577389	0.689738	0.405189
591	C	0.546875	0.669471	0.445788
592	H	0.573888	0.673437	0.472843
593	H	0.517063	0.627518	0.442497
594	H	0.527527	0.691975	0.455115
595	C	0.697291	0.892254	0.693233
596	N	0.643592	0.861061	0.693085
597	C	0.618195	0.807114	0.69323
598	N	0.649392	0.78461	0.693092
599	C	0.703336	0.813158	0.693233
600	N	0.725841	0.866859	0.693095
601	C	0.812574	0.616218	0.692611
602	N	0.866539	0.644441	0.692618
603	C	0.894231	0.698431	0.692587
604	N	0.866008	0.724171	0.692584
605	C	0.81202	0.697872	0.692581
606	N	0.786278	0.64391	0.692611
607	C	0.73339	0.787101	0.693653
608	N	0.706101	0.733043	0.025115
609	C	0.728577	0.701953	0.024783
610	C	0.784331	0.726103	0.692749
611	N	0.811707	0.779942	0.694947
612	C	0.789715	0.811687	0.695451
613	H	0.704631	0.661674	0.023245
614	C	0.824207	0.865455	0.701035
615	O	0.866349	0.886876	0.680631
616	O	0.821148	0.890152	0.738063
617	C	0.841426	0.879971	0.778692
618	H	0.837809	0.903347	0.805639
619	H	0.88328	0.89177	0.775297
620	H	0.818696	0.8382	0.788231
621	C	0.72335	0.948366	0.693656
622	N	0.777404	0.975133	0.025102
623	C	0.808494	0.528695	0.024779
624	C	0.784348	0.560301	0.692776
625	N	0.730509	0.533835	0.694994
626	C	0.698754	0.980099	0.695455
627	H	0.84877	0.545031	0.023217
628	C	0.645007	0.960843	0.701186
629	O	0.623542	0.981614	0.68092
630	O	0.620373	0.93299	0.738194
631	C	0.630802	0.96331	0.77893
632	H	0.607431	0.936258	0.805851
633	H	0.619169	0.993512	0.775754
634	H	0.672588	0.982153	0.788372
635	C	0.562084	0.777063	0.693646
636	N	0.535316	0.804346	0.025033
637	C	0.981753	0.78187	0.024689
638	C	0.950147	0.726119	0.692742
639	N	0.976618	0.698757	0.695041
640	C	0.530356	0.720737	0.695515
641	H	0.965413	0.805809	0.0231
642	C	0.549632	0.686263	0.701391
643	O	0.528847	0.644064	0.681078
644	O	0.577389	0.689738	0.738524
645	C	0.546875	0.669471	0.779122
646	H	0.573888	0.673437	0.806177
647	H	0.517063	0.627518	0.775828
648	H	0.527527	0.691975	0.78845
