data_C144H99N45_2018-02-15_10:44:58
#******************************************
#
# CIF file created by Zeo++
# Zeo++ is an open source package to
# analyze microporous materials
#
#*******************************************

_cell_length_a		29.2544   
_cell_length_b		29.2544   
_cell_length_c		29.9814   
_cell_angle_alpha		90   
_cell_angle_beta		90   
_cell_angle_gamma		120   

_symmetry_space_group_name_H-M		'P1'
_symmetry_Int_Tables_number		1
_symmetry_cell_setting		Monoclinic

loop_
_symmetry_equiv_pos_as_xyz
'+x,+y,+z'

loop_
_atom_site_label
_atom_site_type_symbol
_atom_site_fract_x
_atom_site_fract_y
_atom_site_fract_z
1	H	0.005044	0.517821	0.093511
2	H	0.005044	0.517821	0.426845
3	H	0.005044	0.517821	0.760178
4	C	0.349654	0.71968	0.997055
5	N	0.297546	0.682612	0.997222
6	C	0.281098	0.630132	0.997042
7	N	0.318165	0.615089	0.997222
8	C	0.370646	0.651126	0.997055
9	N	0.385688	0.703232	0.997232
10	C	0.408437	0.636206	0.99854
11	C	0.364575	0.772389	0.998546
12	C	0.228389	0.592342	0.99853
13	H	0.218518	0.554513	0.999507
14	H	0.336618	0.782261	0.999517
15	H	0.446268	0.664167	0.99952
16	C	0.651097	0.280913	0.00261
17	N	0.70325	0.317815	0.002489
18	C	0.719867	0.370342	0.002593
19	N	0.682964	0.38559	0.00248
20	C	0.630437	0.34968	0.002598
21	N	0.615187	0.29753	0.002494
22	C	0.592866	0.364911	0.001866
23	C	0.635868	0.228113	0.001883
24	C	0.772666	0.40791	0.001857
25	H	0.783028	0.445403	0.995988
26	H	0.663001	0.217751	0.996025
27	H	0.55537	0.337775	0.996015
28	C	0.57341	0.4328	0.008816
29	C	0.556533	0.443615	0.049444
30	C	0.524145	0.466911	0.050536
31	C	0.509706	0.480769	0.009368
32	C	0.526934	0.469792	0.302056
33	C	0.558505	0.446133	0.301746
34	H	0.517787	0.480224	0.272164
35	H	0.571372	0.439589	0.271964
36	C	0.48096	0.508079	0.007191
37	C	0.502737	0.55966	0.024728
38	C	0.474869	0.587215	0.022053
39	C	0.424774	0.564093	0.334618
40	C	0.402981	0.512528	0.317279
41	C	0.430943	0.485004	0.31972
42	H	0.53906	0.577532	0.039704
43	H	0.491239	0.624025	0.035884
44	H	0.366575	0.494675	0.302449
45	H	0.567773	0.433929	0.078677
46	H	0.41418	0.447685	0.306755
47	N	0.507428	0.474209	0.090898
48	H	0.517108	0.463591	0.118476
49	H	0.482957	0.487377	0.093512
50	N	0.395661	0.587278	0.332282
51	N	0.60549	0.413151	0.008886
52	C	0.567977	0.140768	0.008826
53	C	0.557165	0.113073	0.049453
54	C	0.53387	0.057389	0.050543
55	C	0.52001	0.029094	0.009374
56	C	0.530985	0.057301	0.302063
57	C	0.554645	0.11253	0.301756
58	H	0.520553	0.037722	0.27217
59	H	0.561187	0.131946	0.271973
60	C	0.4927	0.97304	0.007195
61	C	0.44112	0.943236	0.024732
62	C	0.413563	0.88781	0.022057
63	C	0.436687	0.86084	0.334621
64	C	0.488253	0.890613	0.317281
65	C	0.515774	0.946097	0.319722
66	H	0.423246	0.961684	0.039709
67	H	0.376752	0.867368	0.035889
68	H	0.506105	0.872058	0.30245
69	H	0.566847	0.133996	0.078688
70	H	0.553095	0.966654	0.306757
71	N	0.526571	0.033371	0.090904
72	H	0.537188	0.053667	0.118482
73	H	0.513405	0.995736	0.093515
74	N	0.413502	0.808541	0.332285
75	N	0.587626	0.192493	0.0089
76	C	0.860011	0.427369	0.008822
77	C	0.887703	0.444243	0.049448
78	C	0.94339	0.476633	0.050538
79	C	0.971683	0.491071	0.009369
80	C	0.943477	0.473846	0.302058
81	C	0.888246	0.442273	0.301751
82	H	0.963056	0.482991	0.272165
83	H	0.86883	0.429406	0.271968
84	C	0.02774	0.519818	0.00719
85	C	0.057546	0.498042	0.024725
86	C	0.112968	0.525908	0.022048
87	C	0.139939	0.576005	0.334611
88	C	0.110165	0.597797	0.317274
89	C	0.054683	0.569836	0.319717
90	H	0.039094	0.461717	0.039702
91	H	0.13341	0.50954	0.035878
92	H	0.128719	0.634205	0.302442
93	H	0.866784	0.433005	0.078683
94	H	0.034124	0.586599	0.306753
95	N	0.967407	0.493349	0.0909
96	H	0.94711	0.48367	0.118478
97	N	0.192238	0.605119	0.332273
98	N	0.808285	0.395291	0.008895
99	C	0.349654	0.71968	0.330388
100	N	0.297546	0.682612	0.330556
101	C	0.281098	0.630132	0.330375
102	N	0.318165	0.615089	0.330556
103	C	0.370646	0.651126	0.33039
104	N	0.385688	0.703232	0.330565
105	C	0.408437	0.636206	0.331875
106	C	0.364575	0.772389	0.331879
107	C	0.228389	0.592342	0.331864
108	H	0.218518	0.554513	0.332842
109	H	0.336618	0.782261	0.332852
110	H	0.446268	0.664167	0.332854
111	C	0.651097	0.280913	0.335942
112	N	0.70325	0.317815	0.335822
113	C	0.719867	0.370342	0.335925
114	N	0.682964	0.38559	0.335812
115	C	0.630437	0.34968	0.335932
116	N	0.615187	0.29753	0.335825
117	C	0.592866	0.364911	0.335198
118	C	0.635868	0.228113	0.335215
119	C	0.772666	0.40791	0.335191
120	H	0.783028	0.445403	0.32932
121	H	0.663001	0.217751	0.329358
122	H	0.55537	0.337775	0.329349
123	C	0.57341	0.4328	0.342149
124	C	0.556533	0.443615	0.382778
125	C	0.524145	0.466911	0.383868
126	C	0.509706	0.480769	0.342703
127	C	0.526934	0.469792	0.635388
128	C	0.558505	0.446133	0.635081
129	H	0.517787	0.480224	0.605496
130	H	0.571372	0.439589	0.605299
131	C	0.48096	0.508079	0.340525
132	C	0.502737	0.55966	0.358062
133	C	0.474869	0.587215	0.355387
134	C	0.424774	0.564093	0.667951
135	C	0.402981	0.512528	0.65061
136	C	0.430943	0.485004	0.653052
137	H	0.53906	0.577532	0.373038
138	H	0.491239	0.624025	0.369216
139	H	0.366575	0.494675	0.635781
140	H	0.567773	0.433929	0.412012
141	H	0.41418	0.447685	0.640087
142	N	0.507428	0.474209	0.42423
143	H	0.517108	0.463591	0.45181
144	H	0.482957	0.487377	0.426845
145	N	0.395661	0.587278	0.665616
146	N	0.60549	0.413151	0.342219
147	C	0.567977	0.140768	0.342159
148	C	0.557165	0.113073	0.382788
149	C	0.53387	0.057389	0.383875
150	C	0.52001	0.029094	0.342706
151	C	0.530985	0.057301	0.635398
152	C	0.554645	0.11253	0.635087
153	H	0.520553	0.037722	0.605502
154	H	0.561187	0.131946	0.605306
155	C	0.4927	0.97304	0.340528
156	C	0.44112	0.943236	0.358066
157	C	0.413563	0.88781	0.355391
158	C	0.436687	0.86084	0.667955
159	C	0.488253	0.890613	0.650614
160	C	0.515774	0.946097	0.653055
161	H	0.423246	0.961684	0.373042
162	H	0.376752	0.867368	0.369222
163	H	0.506105	0.872058	0.635785
164	H	0.566847	0.133996	0.412022
165	H	0.553095	0.966654	0.640091
166	N	0.526571	0.033371	0.424237
167	H	0.537188	0.053667	0.451814
168	H	0.513405	0.995736	0.426848
169	N	0.413502	0.808541	0.66562
170	N	0.587626	0.192493	0.342232
171	C	0.860011	0.427369	0.342156
172	C	0.887703	0.444243	0.382781
173	C	0.94339	0.476633	0.383872
174	C	0.971683	0.491071	0.342703
175	C	0.943477	0.473846	0.635391
176	C	0.888246	0.442273	0.635084
177	H	0.963056	0.482991	0.605499
178	H	0.86883	0.429406	0.605302
179	C	0.02774	0.519818	0.340525
180	C	0.057546	0.498042	0.358059
181	C	0.112968	0.525908	0.355381
182	C	0.139939	0.576005	0.667945
183	C	0.110165	0.597797	0.650607
184	C	0.054683	0.569836	0.653052
185	H	0.039094	0.461717	0.373035
186	H	0.13341	0.50954	0.369212
187	H	0.128719	0.634205	0.635775
188	H	0.866784	0.433005	0.412016
189	H	0.034124	0.586599	0.640087
190	N	0.967407	0.493349	0.424233
191	H	0.94711	0.48367	0.45181
192	N	0.192238	0.605119	0.665606
193	N	0.808285	0.395291	0.342229
194	C	0.349654	0.71968	0.663722
195	N	0.297546	0.682612	0.663889
196	C	0.281098	0.630132	0.663709
197	N	0.318165	0.615089	0.663889
198	C	0.370646	0.651126	0.663722
199	N	0.385688	0.703232	0.663899
200	C	0.408437	0.636206	0.66521
201	C	0.364575	0.772389	0.665213
202	C	0.228389	0.592342	0.665196
203	H	0.218518	0.554513	0.666177
204	H	0.336618	0.782261	0.666183
205	H	0.446268	0.664167	0.666187
206	C	0.651097	0.280913	0.669275
207	N	0.70325	0.317815	0.669155
208	C	0.719867	0.370342	0.669259
209	N	0.682964	0.38559	0.669145
210	C	0.630437	0.34968	0.669265
211	N	0.615187	0.29753	0.669159
212	C	0.592866	0.364911	0.668532
213	C	0.635868	0.228113	0.668548
214	C	0.772666	0.40791	0.668522
215	H	0.783028	0.445403	0.662655
216	H	0.663001	0.217751	0.662691
217	H	0.55537	0.337775	0.662681
218	C	0.57341	0.4328	0.675483
219	C	0.556533	0.443615	0.716111
220	C	0.524145	0.466911	0.717202
221	C	0.509706	0.480769	0.676033
222	C	0.526934	0.469792	0.968721
223	C	0.558505	0.446133	0.968411
224	H	0.517787	0.480224	0.938829
225	H	0.571372	0.439589	0.938629
226	C	0.48096	0.508079	0.673858
227	C	0.502737	0.55966	0.691392
228	C	0.474869	0.587215	0.688721
229	C	0.424774	0.564093	0.001285
230	C	0.402981	0.512528	0.983944
231	C	0.430943	0.485004	0.986386
232	H	0.53906	0.577532	0.706372
233	H	0.491239	0.624025	0.702549
234	H	0.366575	0.494675	0.969115
235	H	0.567773	0.433929	0.745343
236	H	0.41418	0.447685	0.973421
237	N	0.507428	0.474209	0.757564
238	H	0.517108	0.463591	0.785141
239	H	0.482957	0.487377	0.760178
240	N	0.395661	0.587278	0.998947
241	N	0.60549	0.413151	0.675553
242	C	0.567977	0.140768	0.675493
243	C	0.557165	0.113073	0.716118
244	C	0.53387	0.057389	0.717208
245	C	0.52001	0.029094	0.67604
246	C	0.530985	0.057301	0.968728
247	C	0.554645	0.11253	0.968421
248	H	0.520553	0.037722	0.938836
249	H	0.561187	0.131946	0.938639
250	C	0.4927	0.97304	0.673862
251	C	0.44112	0.943236	0.691399
252	C	0.413563	0.88781	0.688724
253	C	0.436687	0.86084	0.001288
254	C	0.488253	0.890613	0.983947
255	C	0.515774	0.946097	0.986389
256	H	0.423246	0.961684	0.706375
257	H	0.376752	0.867368	0.702556
258	H	0.506105	0.872058	0.969118
259	H	0.566847	0.133996	0.745353
260	H	0.553095	0.966654	0.973424
261	N	0.526571	0.033371	0.75757
262	H	0.537188	0.053667	0.785147
263	H	0.513405	0.995736	0.760182
264	N	0.413502	0.808541	0.99895
265	N	0.587626	0.192493	0.675566
266	C	0.860011	0.427369	0.675489
267	C	0.887703	0.444243	0.716114
268	C	0.94339	0.476633	0.717205
269	C	0.971683	0.491071	0.676036
270	C	0.943477	0.473846	0.968725
271	C	0.888246	0.442273	0.968418
272	H	0.963056	0.482991	0.938833
273	H	0.86883	0.429406	0.938636
274	C	0.02774	0.519818	0.673855
275	C	0.057546	0.498042	0.691392
276	C	0.112968	0.525908	0.688714
277	C	0.139939	0.576005	0.001279
278	C	0.110165	0.597797	0.983941
279	C	0.054683	0.569836	0.986382
280	H	0.039094	0.461717	0.706368
281	H	0.13341	0.50954	0.702543
282	H	0.128719	0.634205	0.969108
283	H	0.866784	0.433005	0.745349
284	H	0.034124	0.586599	0.973421
285	N	0.967407	0.493349	0.757567
286	H	0.94711	0.48367	0.785144
287	N	0.192238	0.605119	0.99894
288	N	0.808285	0.395291	0.675563
