data_C324H216N72_2018-02-15_10:37:18
#******************************************
#
# CIF file created by Zeo++
# Zeo++ is an open source package to
# analyze microporous materials
#
#*******************************************

_cell_length_a		29.0682   
_cell_length_b		29.0682   
_cell_length_c		29.5222   
_cell_angle_alpha		90   
_cell_angle_beta		90   
_cell_angle_gamma		120   

_symmetry_space_group_name_H-M		'P1'
_symmetry_Int_Tables_number		1
_symmetry_cell_setting		Monoclinic

loop_
_symmetry_equiv_pos_as_xyz
'+x,+y,+z'

loop_
_atom_site_label
_atom_site_type_symbol
_atom_site_fract_x
_atom_site_fract_y
_atom_site_fract_z
1	C	0.124541	0.314294	0.007861
2	C	0.068761	0.286404	0.008389
3	C	0.040656	0.272351	0.049789
4	H	0.061669	0.282857	0.079513
5	C	0.039788	0.271918	0.30085
6	H	0.059151	0.281599	0.270347
7	C	0.124541	0.314294	0.341194
8	C	0.068761	0.286404	0.341722
9	C	0.040656	0.272351	0.383122
10	H	0.061669	0.282857	0.412848
11	C	0.039788	0.271918	0.634183
12	H	0.059151	0.281599	0.603681
13	C	0.124541	0.314294	0.674529
14	C	0.068761	0.286404	0.675058
15	C	0.040656	0.272351	0.716457
16	H	0.061669	0.282857	0.74618
17	C	0.039788	0.271918	0.967519
18	H	0.059151	0.281599	0.937013
19	C	0.124541	0.814295	0.007861
20	C	0.068762	0.786405	0.008389
21	C	0.040657	0.77235	0.049789
22	H	0.061669	0.782857	0.079513
23	C	0.039787	0.771917	0.30085
24	H	0.059151	0.781598	0.270347
25	C	0.124541	0.814295	0.341194
26	C	0.068762	0.786405	0.341722
27	C	0.040657	0.77235	0.383122
28	H	0.061669	0.782857	0.412848
29	C	0.039787	0.771917	0.634183
30	H	0.059151	0.781598	0.603681
31	C	0.124541	0.814295	0.674529
32	C	0.068762	0.786405	0.675058
33	C	0.040657	0.77235	0.716457
34	H	0.061669	0.782857	0.74618
35	C	0.039787	0.771917	0.967519
36	H	0.059151	0.781598	0.937013
37	N	0.151901	0.368328	0.007969
38	N	0.151901	0.28762	0.007973
39	N	0.151901	0.368328	0.341302
40	N	0.151901	0.28762	0.341306
41	N	0.151901	0.368328	0.674638
42	N	0.151901	0.28762	0.674638
43	N	0.151901	0.868327	0.007969
44	N	0.151901	0.78762	0.007973
45	N	0.151901	0.868327	0.341302
46	N	0.151901	0.78762	0.341306
47	N	0.151901	0.868327	0.674638
48	N	0.151901	0.78762	0.674638
49	C	0.205935	0.395687	0.007861
50	C	0.205934	0.314293	0.007861
51	N	0.232608	0.368327	0.007969
52	C	0.233824	0.286403	0.008388
53	H	0.23737	0.282854	0.079512
54	H	0.238629	0.281601	0.270345
55	C	0.233824	0.451465	0.008388
56	H	0.237372	0.45856	0.079512
57	H	0.23863	0.461078	0.270346
58	C	0.205935	0.395687	0.341194
59	C	0.205934	0.314293	0.341197
60	N	0.232608	0.368327	0.341302
61	C	0.233824	0.286403	0.341722
62	H	0.23737	0.282854	0.412845
63	H	0.238629	0.281601	0.603677
64	C	0.233824	0.451465	0.341722
65	H	0.237372	0.45856	0.412845
66	H	0.23863	0.461078	0.603681
67	C	0.205935	0.395687	0.674526
68	C	0.205934	0.314293	0.674529
69	N	0.232608	0.368327	0.674638
70	C	0.233824	0.286403	0.675054
71	H	0.23737	0.282854	0.74618
72	H	0.238629	0.281601	0.937013
73	C	0.233824	0.451465	0.675054
74	H	0.237372	0.45856	0.74618
75	H	0.23863	0.461078	0.937013
76	C	0.205936	0.895689	0.007861
77	C	0.205935	0.814295	0.007861
78	N	0.232608	0.868327	0.007969
79	C	0.233824	0.786405	0.008388
80	H	0.23737	0.782853	0.079512
81	H	0.23863	0.781602	0.270345
82	C	0.233824	0.951465	0.008388
83	H	0.237372	0.95856	0.079512
84	H	0.23863	0.961078	0.270346
85	C	0.205936	0.895689	0.341194
86	C	0.205935	0.814295	0.341197
87	N	0.232608	0.868327	0.341302
88	C	0.233824	0.786405	0.341722
89	H	0.23737	0.782853	0.412845
90	H	0.23863	0.781602	0.603677
91	C	0.233824	0.951465	0.341722
92	H	0.237372	0.95856	0.412845
93	H	0.23863	0.961078	0.603681
94	C	0.205936	0.895689	0.674526
95	C	0.205935	0.814295	0.674529
96	N	0.232608	0.868327	0.674638
97	C	0.233824	0.786405	0.675054
98	H	0.23737	0.782853	0.74618
99	H	0.23863	0.781602	0.937013
100	C	0.233824	0.951465	0.675054
101	H	0.237372	0.95856	0.74618
102	H	0.23863	0.961078	0.937013
103	C	0.318339	0.120495	0.007854
104	N	0.372368	0.14786	0.008136
105	C	0.399733	0.201888	0.007854
106	N	0.372368	0.228551	0.00813
107	C	0.318339	0.20189	0.007848
108	N	0.291677	0.147862	0.008131
109	C	0.247877	0.272349	0.049786
110	C	0.276054	0.244172	0.051005
111	C	0.290411	0.229817	0.009423
112	C	0.276265	0.243964	0.301387
113	C	0.248311	0.271918	0.300848
114	H	0.286215	0.234016	0.271116
115	C	0.290005	0.230223	0.095466
116	H	0.276284	0.243943	0.124118
117	H	0.333055	0.24829	0.098236
118	H	0.271941	0.187174	0.098236
119	C	0.247876	0.47957	0.049788
120	C	0.276054	0.035926	0.051009
121	C	0.29041	0.06464	0.009428
122	C	0.276265	0.036349	0.30139
123	C	0.248311	0.48044	0.300849
124	H	0.286215	0.056249	0.27112
125	C	0.290003	0.063824	0.095471
126	H	0.276282	0.036381	0.124122
127	H	0.271938	0.088807	0.098242
128	H	0.333052	0.088807	0.098242
129	C	0.4843	0.244174	0.051009
130	C	0.455589	0.229817	0.009428
131	C	0.483879	0.243963	0.301391
132	H	0.46398	0.234013	0.271121
133	C	0.456404	0.230224	0.095471
134	H	0.483846	0.243946	0.124122
135	H	0.431421	0.187175	0.098242
136	H	0.431419	0.248288	0.098242
137	C	0.318339	0.120495	0.341187
138	N	0.372368	0.14786	0.341468
139	C	0.399733	0.201888	0.341187
140	N	0.372368	0.228551	0.341465
141	C	0.318339	0.20189	0.34118
142	N	0.291677	0.147862	0.341465
143	C	0.247877	0.272349	0.383122
144	C	0.276054	0.244172	0.384338
145	C	0.290411	0.229817	0.342755
146	C	0.276265	0.243964	0.634722
147	C	0.248311	0.271918	0.634183
148	H	0.286215	0.234016	0.60445
149	C	0.290005	0.230223	0.428799
150	H	0.276284	0.243943	0.457452
151	H	0.333055	0.24829	0.43157
152	H	0.271941	0.187174	0.43157
153	C	0.247876	0.47957	0.383122
154	C	0.276054	0.035926	0.384341
155	C	0.29041	0.06464	0.342762
156	C	0.276265	0.036349	0.634725
157	C	0.248311	0.48044	0.634183
158	H	0.286215	0.056249	0.604453
159	C	0.290003	0.063824	0.428806
160	H	0.276282	0.036381	0.457455
161	H	0.271938	0.088807	0.431577
162	H	0.333052	0.088807	0.431577
163	C	0.4843	0.244174	0.384344
164	C	0.455589	0.229817	0.342762
165	C	0.483879	0.243963	0.634725
166	H	0.46398	0.234013	0.604453
167	C	0.456404	0.230224	0.428806
168	H	0.483846	0.243946	0.457455
169	H	0.431421	0.187175	0.431577
170	H	0.431419	0.248288	0.431577
171	C	0.318339	0.120495	0.674522
172	N	0.372368	0.14786	0.674803
173	C	0.399733	0.201888	0.674522
174	N	0.372368	0.228551	0.674797
175	C	0.318339	0.20189	0.674516
176	N	0.291677	0.147862	0.674797
177	C	0.247877	0.272349	0.716453
178	C	0.276054	0.244172	0.717673
179	C	0.290411	0.229817	0.676091
180	C	0.276265	0.243964	0.968054
181	C	0.248311	0.271918	0.967515
182	H	0.286215	0.234016	0.937785
183	C	0.290005	0.230223	0.762134
184	H	0.276284	0.243943	0.790784
185	H	0.333055	0.24829	0.764902
186	H	0.271941	0.187174	0.764902
187	C	0.247876	0.47957	0.716453
188	C	0.276054	0.035926	0.717676
189	C	0.29041	0.06464	0.676094
190	C	0.276265	0.036349	0.968057
191	C	0.248311	0.48044	0.967515
192	H	0.286215	0.056249	0.937788
193	C	0.290003	0.063824	0.762138
194	H	0.276282	0.036381	0.790791
195	H	0.271938	0.088807	0.764908
196	H	0.333052	0.088807	0.764908
197	C	0.4843	0.244174	0.717676
198	C	0.455589	0.229817	0.676094
199	C	0.483879	0.243963	0.968057
200	H	0.46398	0.234013	0.937788
201	C	0.456404	0.230224	0.762138
202	H	0.483846	0.243946	0.790791
203	H	0.431421	0.187175	0.764908
204	H	0.431419	0.248288	0.764908
205	C	0.318339	0.620494	0.007854
206	N	0.372368	0.64786	0.008136
207	C	0.399733	0.701888	0.007854
208	N	0.372368	0.728551	0.00813
209	C	0.31834	0.701892	0.007848
210	N	0.291676	0.64786	0.008131
211	C	0.247877	0.77235	0.049786
212	C	0.276053	0.74417	0.051005
213	C	0.290411	0.729818	0.009423
214	C	0.276265	0.743964	0.301387
215	C	0.24831	0.771917	0.300848
216	H	0.286215	0.734017	0.271116
217	C	0.290005	0.730223	0.095466
218	H	0.276285	0.743944	0.124118
219	H	0.333055	0.74829	0.098236
220	H	0.271941	0.687175	0.098236
221	C	0.247876	0.97957	0.049788
222	C	0.276054	0.535926	0.051009
223	C	0.290409	0.564638	0.009428
224	C	0.276266	0.536351	0.30139
225	C	0.248311	0.98044	0.300849
226	H	0.286215	0.556249	0.27112
227	C	0.290004	0.563824	0.095471
228	H	0.276281	0.536379	0.124122
229	H	0.271938	0.588806	0.098242
230	H	0.333052	0.588806	0.098242
231	C	0.484302	0.744174	0.051009
232	C	0.455589	0.729818	0.009428
233	C	0.48388	0.743964	0.301391
234	H	0.46398	0.734013	0.271121
235	C	0.456403	0.730223	0.095471
236	H	0.483845	0.743944	0.124122
237	H	0.431421	0.687175	0.098242
238	H	0.43142	0.74829	0.098242
239	C	0.318339	0.620494	0.341187
240	N	0.372368	0.64786	0.341468
241	C	0.399733	0.701888	0.341187
242	N	0.372368	0.728551	0.341465
243	C	0.31834	0.701892	0.34118
244	N	0.291676	0.64786	0.341465
245	C	0.247877	0.77235	0.383122
246	C	0.276053	0.74417	0.384338
247	C	0.290411	0.729818	0.342755
248	C	0.276265	0.743964	0.634722
249	C	0.24831	0.771917	0.634183
250	H	0.286215	0.734017	0.60445
251	C	0.290005	0.730223	0.428799
252	H	0.276285	0.743944	0.457452
253	H	0.333055	0.74829	0.43157
254	H	0.271941	0.687175	0.43157
255	C	0.247876	0.97957	0.383122
256	C	0.276054	0.535926	0.384341
257	C	0.290409	0.564638	0.342762
258	C	0.276266	0.536351	0.634725
259	C	0.248311	0.98044	0.634183
260	H	0.286215	0.556249	0.604453
261	C	0.290004	0.563824	0.428806
262	H	0.276281	0.536379	0.457455
263	H	0.271938	0.588806	0.431577
264	H	0.333052	0.588806	0.431577
265	C	0.484302	0.744174	0.384344
266	C	0.455589	0.729818	0.342762
267	C	0.48388	0.743964	0.634725
268	H	0.46398	0.734013	0.604453
269	C	0.456403	0.730223	0.428806
270	H	0.483845	0.743944	0.457455
271	H	0.431421	0.687175	0.431577
272	H	0.43142	0.74829	0.431577
273	C	0.318339	0.620494	0.674522
274	N	0.372368	0.64786	0.674803
275	C	0.399733	0.701888	0.674522
276	N	0.372368	0.728551	0.674797
277	C	0.31834	0.701892	0.674516
278	N	0.291676	0.64786	0.674797
279	C	0.247877	0.77235	0.716453
280	C	0.276053	0.74417	0.717673
281	C	0.290411	0.729818	0.676091
282	C	0.276265	0.743964	0.968054
283	C	0.24831	0.771917	0.967515
284	H	0.286215	0.734017	0.937785
285	C	0.290005	0.730223	0.762134
286	H	0.276285	0.743944	0.790784
287	H	0.333055	0.74829	0.764902
288	H	0.271941	0.687175	0.764902
289	C	0.247876	0.97957	0.716453
290	C	0.276054	0.535926	0.717676
291	C	0.290409	0.564638	0.676094
292	C	0.276266	0.536351	0.968057
293	C	0.248311	0.98044	0.967515
294	H	0.286215	0.556249	0.937788
295	C	0.290004	0.563824	0.762138
296	H	0.276281	0.536379	0.790791
297	H	0.271938	0.588806	0.764908
298	H	0.333052	0.588806	0.764908
299	C	0.484302	0.744174	0.717676
300	C	0.455589	0.729818	0.676094
301	C	0.48388	0.743964	0.968057
302	H	0.46398	0.734013	0.937788
303	C	0.456403	0.730223	0.762138
304	H	0.483845	0.743944	0.790791
305	H	0.431421	0.687175	0.764908
306	H	0.43142	0.74829	0.764908
307	C	0.705935	0.395687	0.007861
308	N	0.651902	0.368328	0.007969
309	C	0.624541	0.314294	0.007861
310	N	0.651901	0.28762	0.007973
311	C	0.705935	0.314293	0.007861
312	N	0.732608	0.368327	0.007969
313	C	0.818341	0.120495	0.007854
314	N	0.872366	0.14786	0.008136
315	C	0.899735	0.201888	0.007854
316	N	0.872369	0.228551	0.00813
317	C	0.818337	0.20189	0.007848
318	N	0.791677	0.147862	0.008131
319	C	0.733823	0.286403	0.008388
320	C	0.747877	0.272349	0.049786
321	C	0.776055	0.244172	0.051005
322	C	0.79041	0.229817	0.009423
323	C	0.776264	0.243964	0.301387
324	H	0.73737	0.282854	0.079512
325	C	0.748312	0.271918	0.300848
326	H	0.786213	0.234016	0.271116
327	H	0.738629	0.281601	0.270345
328	C	0.790004	0.230223	0.095466
329	H	0.776285	0.243943	0.124118
330	H	0.833054	0.24829	0.098236
331	H	0.77194	0.187174	0.098236
332	C	0.733824	0.451465	0.008388
333	C	0.747876	0.47957	0.049788
334	C	0.776053	0.035926	0.051009
335	C	0.79041	0.06464	0.009428
336	C	0.776264	0.036349	0.30139
337	H	0.737371	0.45856	0.079512
338	C	0.748311	0.48044	0.300849
339	H	0.786214	0.056249	0.27112
340	H	0.738631	0.461078	0.270346
341	C	0.790005	0.063824	0.095471
342	H	0.776284	0.036381	0.124122
343	H	0.771938	0.088807	0.098242
344	H	0.833052	0.088807	0.098242
345	C	0.56876	0.286404	0.008389
346	C	0.540655	0.272351	0.049789
347	C	0.9843	0.244174	0.051009
348	C	0.955587	0.229817	0.009428
349	C	0.983879	0.243963	0.301391
350	H	0.561668	0.282857	0.079513
351	C	0.539788	0.271918	0.30085
352	H	0.96398	0.234013	0.271121
353	H	0.55915	0.281599	0.270347
354	C	0.956402	0.230224	0.095471
355	H	0.983846	0.243946	0.124122
356	H	0.93142	0.187175	0.098242
357	H	0.931418	0.248288	0.098242
358	C	0.705935	0.395687	0.341194
359	N	0.651902	0.368328	0.341302
360	C	0.624541	0.314294	0.341194
361	N	0.651901	0.28762	0.341306
362	C	0.705935	0.314293	0.341197
363	N	0.732608	0.368327	0.341302
364	C	0.818341	0.120495	0.341187
365	N	0.872366	0.14786	0.341468
366	C	0.899735	0.201888	0.341187
367	N	0.872369	0.228551	0.341465
368	C	0.818337	0.20189	0.34118
369	N	0.791677	0.147862	0.341465
370	C	0.733823	0.286403	0.341722
371	C	0.747877	0.272349	0.383122
372	C	0.776055	0.244172	0.384338
373	C	0.79041	0.229817	0.342755
374	C	0.776264	0.243964	0.634722
375	H	0.73737	0.282854	0.412845
376	C	0.748312	0.271918	0.634183
377	H	0.786213	0.234016	0.60445
378	H	0.738629	0.281601	0.603677
379	C	0.790004	0.230223	0.428799
380	H	0.776285	0.243943	0.457452
381	H	0.833054	0.24829	0.43157
382	H	0.77194	0.187174	0.43157
383	C	0.733824	0.451465	0.341722
384	C	0.747876	0.47957	0.383122
385	C	0.776053	0.035926	0.384341
386	C	0.79041	0.06464	0.342762
387	C	0.776264	0.036349	0.634725
388	H	0.737371	0.45856	0.412845
389	C	0.748311	0.48044	0.634183
390	H	0.786214	0.056249	0.604453
391	H	0.738631	0.461078	0.603681
392	C	0.790005	0.063824	0.428806
393	H	0.776284	0.036381	0.457455
394	H	0.771938	0.088807	0.431577
395	H	0.833052	0.088807	0.431577
396	C	0.56876	0.286404	0.341722
397	C	0.540655	0.272351	0.383122
398	C	0.9843	0.244174	0.384344
399	C	0.955587	0.229817	0.342762
400	C	0.983879	0.243963	0.634725
401	H	0.561668	0.282857	0.412848
402	C	0.539788	0.271918	0.634183
403	H	0.96398	0.234013	0.604453
404	H	0.55915	0.281599	0.603681
405	C	0.956402	0.230224	0.428806
406	H	0.983846	0.243946	0.457455
407	H	0.93142	0.187175	0.431577
408	H	0.931418	0.248288	0.431577
409	C	0.705935	0.395687	0.674526
410	N	0.651902	0.368328	0.674638
411	C	0.624541	0.314294	0.674529
412	N	0.651901	0.28762	0.674638
413	C	0.705935	0.314293	0.674529
414	N	0.732608	0.368327	0.674638
415	C	0.818341	0.120495	0.674522
416	N	0.872366	0.14786	0.674803
417	C	0.899735	0.201888	0.674522
418	N	0.872369	0.228551	0.674797
419	C	0.818337	0.20189	0.674516
420	N	0.791677	0.147862	0.674797
421	C	0.733823	0.286403	0.675054
422	C	0.747877	0.272349	0.716453
423	C	0.776055	0.244172	0.717673
424	C	0.79041	0.229817	0.676091
425	C	0.776264	0.243964	0.968054
426	H	0.73737	0.282854	0.74618
427	C	0.748312	0.271918	0.967515
428	H	0.786213	0.234016	0.937785
429	H	0.738629	0.281601	0.937013
430	C	0.790004	0.230223	0.762134
431	H	0.776285	0.243943	0.790784
432	H	0.833054	0.24829	0.764902
433	H	0.77194	0.187174	0.764902
434	C	0.733824	0.451465	0.675054
435	C	0.747876	0.47957	0.716453
436	C	0.776053	0.035926	0.717676
437	C	0.79041	0.06464	0.676094
438	C	0.776264	0.036349	0.968057
439	H	0.737371	0.45856	0.74618
440	C	0.748311	0.48044	0.967515
441	H	0.786214	0.056249	0.937788
442	H	0.738631	0.461078	0.937013
443	C	0.790005	0.063824	0.762138
444	H	0.776284	0.036381	0.790791
445	H	0.771938	0.088807	0.764908
446	H	0.833052	0.088807	0.764908
447	C	0.56876	0.286404	0.675058
448	C	0.540655	0.272351	0.716457
449	C	0.9843	0.244174	0.717676
450	C	0.955587	0.229817	0.676094
451	C	0.983879	0.243963	0.968057
452	H	0.561668	0.282857	0.74618
453	C	0.539788	0.271918	0.967519
454	H	0.96398	0.234013	0.937788
455	H	0.55915	0.281599	0.937013
456	C	0.956402	0.230224	0.762138
457	H	0.983846	0.243946	0.790791
458	H	0.93142	0.187175	0.764908
459	H	0.931418	0.248288	0.764908
460	C	0.705936	0.895689	0.007861
461	N	0.651901	0.868327	0.007969
462	C	0.624541	0.814295	0.007861
463	N	0.651901	0.78762	0.007973
464	C	0.705935	0.814295	0.007861
465	N	0.732608	0.868327	0.007969
466	C	0.818338	0.620494	0.007854
467	N	0.872368	0.64786	0.008136
468	C	0.899733	0.701888	0.007854
469	N	0.872367	0.728551	0.00813
470	C	0.81834	0.701892	0.007848
471	N	0.791675	0.64786	0.008131
472	C	0.733824	0.786405	0.008388
473	C	0.747876	0.77235	0.049786
474	C	0.776052	0.74417	0.051005
475	C	0.790412	0.729818	0.009423
476	C	0.776266	0.743964	0.301387
477	H	0.737372	0.782853	0.079512
478	C	0.74831	0.771917	0.300848
479	H	0.786216	0.734017	0.271116
480	H	0.738631	0.781602	0.270345
481	C	0.790005	0.730223	0.095466
482	H	0.776283	0.743944	0.124118
483	H	0.833055	0.74829	0.098236
484	H	0.771942	0.687175	0.098236
485	C	0.733824	0.951465	0.008388
486	C	0.747876	0.97957	0.049788
487	C	0.776054	0.535926	0.051009
488	C	0.790411	0.564638	0.009428
489	C	0.776267	0.536351	0.30139
490	H	0.737372	0.95856	0.079512
491	C	0.748311	0.98044	0.300849
492	H	0.786216	0.556249	0.27112
493	H	0.73863	0.961078	0.270346
494	C	0.790003	0.563824	0.095471
495	H	0.776281	0.536379	0.124122
496	H	0.771939	0.588806	0.098242
497	H	0.833054	0.588806	0.098242
498	C	0.568762	0.786405	0.008389
499	C	0.540656	0.77235	0.049789
500	C	0.984303	0.744174	0.051009
501	C	0.955589	0.729818	0.009428
502	C	0.983881	0.743964	0.301391
503	H	0.561669	0.782857	0.079513
504	C	0.539788	0.771917	0.30085
505	H	0.963978	0.734013	0.271121
506	H	0.55915	0.781598	0.270347
507	C	0.956404	0.730223	0.095471
508	H	0.983847	0.743944	0.124122
509	H	0.931422	0.687175	0.098242
510	H	0.93142	0.74829	0.098242
511	C	0.705936	0.895689	0.341194
512	N	0.651901	0.868327	0.341302
513	C	0.624541	0.814295	0.341194
514	N	0.651901	0.78762	0.341306
515	C	0.705935	0.814295	0.341197
516	N	0.732608	0.868327	0.341302
517	C	0.818338	0.620494	0.341187
518	N	0.872368	0.64786	0.341468
519	C	0.899733	0.701888	0.341187
520	N	0.872367	0.728551	0.341465
521	C	0.81834	0.701892	0.34118
522	N	0.791675	0.64786	0.341465
523	C	0.733824	0.786405	0.341722
524	C	0.747876	0.77235	0.383122
525	C	0.776052	0.74417	0.384338
526	C	0.790412	0.729818	0.342755
527	C	0.776266	0.743964	0.634722
528	H	0.737372	0.782853	0.412845
529	C	0.74831	0.771917	0.634183
530	H	0.786216	0.734017	0.60445
531	H	0.738631	0.781602	0.603677
532	C	0.790005	0.730223	0.428799
533	H	0.776283	0.743944	0.457452
534	H	0.833055	0.74829	0.43157
535	H	0.771942	0.687175	0.43157
536	C	0.733824	0.951465	0.341722
537	C	0.747876	0.97957	0.383122
538	C	0.776054	0.535926	0.384341
539	C	0.790411	0.564638	0.342762
540	C	0.776267	0.536351	0.634725
541	H	0.737372	0.95856	0.412845
542	C	0.748311	0.98044	0.634183
543	H	0.786216	0.556249	0.604453
544	H	0.73863	0.961078	0.603681
545	C	0.790003	0.563824	0.428806
546	H	0.776281	0.536379	0.457455
547	H	0.771939	0.588806	0.431577
548	H	0.833054	0.588806	0.431577
549	C	0.568762	0.786405	0.341722
550	C	0.540656	0.77235	0.383122
551	C	0.984303	0.744174	0.384344
552	C	0.955589	0.729818	0.342762
553	C	0.983881	0.743964	0.634725
554	H	0.561669	0.782857	0.412848
555	C	0.539788	0.771917	0.634183
556	H	0.963978	0.734013	0.604453
557	H	0.55915	0.781598	0.603681
558	C	0.956404	0.730223	0.428806
559	H	0.983847	0.743944	0.457455
560	H	0.931422	0.687175	0.431577
561	H	0.93142	0.74829	0.431577
562	C	0.705936	0.895689	0.674526
563	N	0.651901	0.868327	0.674638
564	C	0.624541	0.814295	0.674529
565	N	0.651901	0.78762	0.674638
566	C	0.705935	0.814295	0.674529
567	N	0.732608	0.868327	0.674638
568	C	0.818338	0.620494	0.674522
569	N	0.872368	0.64786	0.674803
570	C	0.899733	0.701888	0.674522
571	N	0.872367	0.728551	0.674797
572	C	0.81834	0.701892	0.674516
573	N	0.791675	0.64786	0.674797
574	C	0.733824	0.786405	0.675054
575	C	0.747876	0.77235	0.716453
576	C	0.776052	0.74417	0.717673
577	C	0.790412	0.729818	0.676091
578	C	0.776266	0.743964	0.968054
579	H	0.737372	0.782853	0.74618
580	C	0.74831	0.771917	0.967515
581	H	0.786216	0.734017	0.937785
582	H	0.738631	0.781602	0.937013
583	C	0.790005	0.730223	0.762134
584	H	0.776283	0.743944	0.790784
585	H	0.833055	0.74829	0.764902
586	H	0.771942	0.687175	0.764902
587	C	0.733824	0.951465	0.675054
588	C	0.747876	0.97957	0.716453
589	C	0.776054	0.535926	0.717676
590	C	0.790411	0.564638	0.676094
591	C	0.776267	0.536351	0.968057
592	H	0.737372	0.95856	0.74618
593	C	0.748311	0.98044	0.967515
594	H	0.786216	0.556249	0.937788
595	H	0.73863	0.961078	0.937013
596	C	0.790003	0.563824	0.762138
597	H	0.776281	0.536379	0.790791
598	H	0.771939	0.588806	0.764908
599	H	0.833054	0.588806	0.764908
600	C	0.568762	0.786405	0.675058
601	C	0.540656	0.77235	0.716457
602	C	0.984303	0.744174	0.717676
603	C	0.955589	0.729818	0.676094
604	C	0.983881	0.743964	0.968057
605	H	0.561669	0.782857	0.74618
606	C	0.539788	0.771917	0.967519
607	H	0.963978	0.734013	0.937788
608	H	0.55915	0.781598	0.937013
609	C	0.956404	0.730223	0.762138
610	H	0.983847	0.743944	0.790791
611	H	0.931422	0.687175	0.764908
612	H	0.93142	0.74829	0.764908
