data_C252H144N36_2018-02-15_10:39:17
#******************************************
#
# CIF file created by Zeo++
# Zeo++ is an open source package to
# analyze microporous materials
#
#*******************************************

_cell_length_a		34.1586   
_cell_length_b		34.1691   
_cell_length_c		29.6214   
_cell_angle_alpha		90   
_cell_angle_beta		90   
_cell_angle_gamma		119.993   

_symmetry_space_group_name_H-M		'P1'
_symmetry_Int_Tables_number		1
_symmetry_cell_setting		Monoclinic

loop_
_symmetry_equiv_pos_as_xyz
'+x,+y,+z'

loop_
_atom_site_label
_atom_site_type_symbol
_atom_site_fract_x
_atom_site_fract_y
_atom_site_fract_z
1	C	0.127226	0.065568	0.045735
2	N	0.173126	0.088518	0.044143
3	H	0.111512	0.058096	0.076476
4	C	0.944978	0.064548	0.045716
5	N	0.922081	0.087548	0.044126
6	H	0.952387	0.056244	0.076456
7	C	0.246404	0.124727	0.007524
8	H	0.254143	0.13103	0.079084
9	C	0.886027	0.124767	0.007513
10	H	0.879574	0.126054	0.079067
11	C	0.462285	0.268656	0.006868
12	C	0.414543	0.244611	0.007477
13	C	0.39037	0.196734	0.006942
14	H	0.397382	0.262072	0.008123
15	C	0.742173	0.196803	0.006947
16	C	0.76623	0.173119	0.007563
17	C	0.814121	0.196824	0.006947
18	H	0.748767	0.138508	0.008254
19	C	0.814085	0.54848	0.006962
20	C	0.837737	0.596207	0.007592
21	C	0.813992	0.620351	0.006937
22	H	0.872361	0.61338	0.008316
23	C	0.342441	0.172772	0.007577
24	C	0.318289	0.162135	0.048636
25	C	0.270652	0.138239	0.048767
26	H	0.335228	0.171632	0.078756
27	C	0.838085	0.172858	0.007578
28	C	0.848604	0.159225	0.048628
29	C	0.872453	0.135441	0.048754
30	H	0.839047	0.166605	0.078747
31	C	0.837929	0.668267	0.007574
32	C	0.851615	0.692411	0.048625
33	C	0.875361	0.740033	0.048758
34	C	0.885946	0.764275	0.007524
35	C	0.946088	0.883416	0.045739
36	N	0.923119	0.837531	0.044145
37	H	0.954393	0.899123	0.07648
38	H	0.844299	0.675475	0.078738
39	H	0.884789	0.756533	0.07907
40	N	0.544117	0.164714	0.044065
41	C	0.507847	0.170852	0.045763
42	C	0.604928	0.16033	0.007382
43	C	0.626649	0.161819	0.048636
44	C	0.671281	0.169787	0.048497
45	C	0.694378	0.175046	0.007424
46	H	0.611759	0.160525	0.078985
47	H	0.687884	0.174992	0.078625
48	H	0.498156	0.17697	0.076398
49	N	0.846165	0.382548	0.04409
50	C	0.839955	0.340126	0.045756
51	C	0.85059	0.447752	0.007386
52	C	0.849071	0.467962	0.04864
53	C	0.841111	0.504623	0.04851
54	C	0.83588	0.522481	0.007441
55	H	0.85032	0.454344	0.078988
56	H	0.835865	0.515987	0.078638
57	H	0.834018	0.324342	0.07639
58	N	0.628365	0.466482	0.043983
59	C	0.670807	0.502683	0.045657
60	C	0.563062	0.405867	0.007277
61	C	0.54295	0.384025	0.048522
62	C	0.506307	0.339403	0.048343
63	C	0.488318	0.316437	0.007233
64	H	0.556631	0.398819	0.078879
65	H	0.494976	0.322766	0.078464
66	H	0.686658	0.512422	0.076271
67	C	0.054087	0.028492	0.005934
68	C	0.029896	0.05209	0.005883
69	C	0.982107	0.028541	0.005917
70	H	0.047235	0.086728	0.005657
71	C	0.198048	0.100491	0.338718
72	C	0.173804	0.087823	0.297447
73	C	0.126169	0.063992	0.297572
74	C	0.102018	0.052431	0.33866
75	H	0.190314	0.095738	0.267109
76	H	0.109232	0.055159	0.26743
77	C	0.910206	0.100594	0.338704
78	C	0.922925	0.089071	0.297433
79	C	0.94671	0.065224	0.297556
80	C	0.958167	0.052529	0.33864
81	H	0.915089	0.097743	0.267097
82	H	0.955593	0.057171	0.267414
83	C	0.054087	0.028492	0.339265
84	C	0.029896	0.05209	0.339217
85	C	0.982107	0.028541	0.339248
86	H	0.047235	0.086728	0.338991
87	C	0.198048	0.100491	0.672054
88	C	0.173804	0.087823	0.63078
89	C	0.126169	0.063992	0.630905
90	C	0.102018	0.052431	0.671993
91	C	0.127226	0.065568	0.37907
92	N	0.173126	0.088518	0.377477
93	H	0.111512	0.058096	0.409811
94	H	0.190314	0.095738	0.600444
95	H	0.109232	0.055159	0.600764
96	C	0.910206	0.100594	0.672037
97	C	0.922925	0.089071	0.630766
98	C	0.94671	0.065224	0.630888
99	C	0.958167	0.052529	0.671973
100	C	0.944978	0.064548	0.37905
101	N	0.922081	0.087548	0.37746
102	H	0.952387	0.056244	0.409791
103	H	0.915089	0.097743	0.60043
104	H	0.955593	0.057171	0.600748
105	C	0.054087	0.028492	0.672598
106	C	0.029896	0.05209	0.67255
107	C	0.982107	0.028541	0.672581
108	H	0.047235	0.086728	0.672324
109	C	0.198048	0.100491	0.005387
110	C	0.173804	0.087823	0.964113
111	C	0.126169	0.063992	0.964238
112	C	0.102018	0.052431	0.005326
113	C	0.127226	0.065568	0.712403
114	N	0.173126	0.088518	0.71081
115	H	0.111512	0.058096	0.743144
116	H	0.190314	0.095738	0.933777
117	H	0.109232	0.055159	0.934097
118	C	0.910206	0.100594	0.00537
119	C	0.922925	0.089071	0.964099
120	C	0.94671	0.065224	0.964224
121	C	0.958167	0.052529	0.005309
122	C	0.944978	0.064548	0.712383
123	N	0.922081	0.087548	0.710793
124	H	0.952387	0.056244	0.743124
125	H	0.915089	0.097743	0.933763
126	H	0.955593	0.057171	0.934081
127	C	0.246404	0.124727	0.340858
128	H	0.254143	0.13103	0.412418
129	C	0.886027	0.124767	0.340848
130	H	0.879574	0.126054	0.412401
131	C	0.246404	0.124727	0.674191
132	H	0.254143	0.13103	0.745751
133	C	0.886027	0.124767	0.674181
134	H	0.879574	0.126054	0.745734
135	C	0.958507	0.980766	0.005897
136	C	0.982069	0.956537	0.005941
137	C	0.029861	0.980715	0.005924
138	H	0.923859	0.963465	0.005674
139	H	0.047171	0.96338	0.005708
140	C	0.462279	0.196692	0.005785
141	C	0.485636	0.244345	0.006099
142	C	0.414531	0.173012	0.006062
143	H	0.397367	0.138394	0.00588
144	H	0.520347	0.261689	0.005863
145	C	0.814154	0.268747	0.005775
146	C	0.766488	0.244451	0.006157
147	C	0.837846	0.244695	0.006015
148	H	0.872476	0.262148	0.005792
149	H	0.749132	0.261805	0.005961
150	C	0.742082	0.54844	0.005725
151	C	0.766421	0.525114	0.006126
152	C	0.766105	0.59617	0.005951
153	H	0.748622	0.613312	0.005691
154	H	0.749087	0.490413	0.005907
155	N	0.271323	0.135859	0.302125
156	C	0.317223	0.158718	0.300535
157	H	0.33293	0.165542	0.269809
158	N	0.875005	0.138666	0.302121
159	C	0.852202	0.16176	0.300536
160	H	0.84545	0.170715	0.269815
161	N	0.871998	0.739367	0.302132
162	C	0.848933	0.693482	0.300541
163	C	0.910081	0.812617	0.338721
164	C	0.921583	0.836859	0.297453
165	C	0.945401	0.884477	0.297579
166	C	0.958086	0.908621	0.338667
167	H	0.91292	0.820355	0.267114
168	H	0.953443	0.90141	0.267439
169	H	0.839939	0.677779	0.26982
170	C	0.488295	0.174917	0.338691
171	C	0.506376	0.170089	0.297569
172	C	0.543058	0.162156	0.297392
173	C	0.563068	0.160254	0.33864
174	C	0.670961	0.171494	0.300331
175	N	0.628487	0.16518	0.301977
176	H	0.686815	0.177662	0.269712
177	H	0.495182	0.175611	0.267468
178	H	0.556832	0.161174	0.267046
179	C	0.835922	0.316528	0.33868
180	C	0.840709	0.339427	0.297568
181	C	0.848607	0.384018	0.297407
182	C	0.850559	0.405925	0.338667
183	C	0.839494	0.502666	0.30034
184	N	0.845753	0.466486	0.301995
185	H	0.833251	0.512324	0.269742
186	H	0.835194	0.322724	0.267463
187	H	0.849626	0.398778	0.267055
188	C	0.694282	0.522387	0.338556
189	C	0.67131	0.50445	0.297454
190	C	0.626697	0.467776	0.297304
191	C	0.60489	0.447667	0.338559
192	C	0.508059	0.339961	0.300175
193	N	0.544233	0.382403	0.301856
194	H	0.498291	0.324179	0.269533
195	H	0.687943	0.515851	0.267342
196	H	0.611807	0.454175	0.266958
197	C	0.958507	0.980766	0.339227
198	C	0.982069	0.956537	0.339275
199	C	0.029861	0.980715	0.339258
200	H	0.923859	0.963465	0.339008
201	H	0.047171	0.96338	0.339038
202	C	0.462279	0.196692	0.339116
203	C	0.485636	0.244345	0.339433
204	C	0.462285	0.268656	0.340203
205	C	0.414543	0.244611	0.340811
206	C	0.39037	0.196734	0.340274
207	C	0.414531	0.173012	0.339396
208	H	0.397382	0.262072	0.341456
209	H	0.397367	0.138394	0.339214
210	H	0.520347	0.261689	0.339194
211	C	0.814154	0.268747	0.339109
212	C	0.766488	0.244451	0.339491
213	C	0.742173	0.196803	0.340281
214	C	0.76623	0.173119	0.340895
215	C	0.814121	0.196824	0.340281
216	C	0.837846	0.244695	0.339349
217	H	0.748767	0.138508	0.341587
218	H	0.872476	0.262148	0.339126
219	H	0.749132	0.261805	0.339292
220	C	0.742082	0.54844	0.339059
221	C	0.766421	0.525114	0.33946
222	C	0.814085	0.54848	0.340298
223	C	0.837737	0.596207	0.340925
224	C	0.813992	0.620351	0.340271
225	C	0.766105	0.59617	0.339285
226	H	0.872361	0.61338	0.341648
227	H	0.748622	0.613312	0.339025
228	H	0.749087	0.490413	0.339238
229	C	0.342441	0.172772	0.340912
230	C	0.318289	0.162135	0.38197
231	C	0.270652	0.138239	0.382102
232	N	0.271323	0.135859	0.635459
233	C	0.317223	0.158718	0.633869
234	H	0.33293	0.165542	0.603144
235	H	0.335228	0.171632	0.41209
236	C	0.838085	0.172858	0.340912
237	C	0.848604	0.159225	0.381963
238	C	0.872453	0.135441	0.382088
239	N	0.875005	0.138666	0.635456
240	C	0.852202	0.16176	0.633869
241	H	0.84545	0.170715	0.603148
242	H	0.839047	0.166605	0.41208
243	C	0.837929	0.668267	0.340909
244	C	0.851615	0.692411	0.38196
245	C	0.875361	0.740033	0.382092
246	C	0.885946	0.764275	0.340858
247	N	0.871998	0.739367	0.635466
248	C	0.848933	0.693482	0.633876
249	C	0.910081	0.812617	0.672054
250	C	0.921583	0.836859	0.630787
251	C	0.945401	0.884477	0.630912
252	C	0.958086	0.908621	0.672
253	C	0.946088	0.883416	0.379074
254	N	0.923119	0.837531	0.37748
255	H	0.954393	0.899123	0.409815
256	H	0.91292	0.820355	0.600447
257	H	0.953443	0.90141	0.600771
258	H	0.839939	0.677779	0.603155
259	H	0.844299	0.675475	0.412073
260	H	0.884789	0.756533	0.412404
261	C	0.488295	0.174917	0.672024
262	C	0.506376	0.170089	0.630901
263	C	0.543058	0.162156	0.630726
264	C	0.563068	0.160254	0.671976
265	N	0.544117	0.164714	0.377399
266	C	0.507847	0.170852	0.379097
267	C	0.604928	0.16033	0.340716
268	C	0.626649	0.161819	0.38197
269	C	0.671281	0.169787	0.381832
270	C	0.694378	0.175046	0.340757
271	C	0.670961	0.171494	0.633663
272	N	0.628487	0.16518	0.63531
273	H	0.686815	0.177662	0.603047
274	H	0.611759	0.160525	0.41232
275	H	0.687884	0.174992	0.411959
276	H	0.498156	0.17697	0.40973
277	H	0.495182	0.175611	0.600802
278	H	0.556832	0.161174	0.60038
279	C	0.835922	0.316528	0.672017
280	C	0.840709	0.339427	0.630901
281	C	0.848607	0.384018	0.630739
282	C	0.850559	0.405925	0.672
283	N	0.846165	0.382548	0.377423
284	C	0.839955	0.340126	0.37909
285	C	0.85059	0.447752	0.34072
286	C	0.849071	0.467962	0.381973
287	C	0.841111	0.504623	0.381845
288	C	0.83588	0.522481	0.340774
289	C	0.839494	0.502666	0.633673
290	N	0.845753	0.466486	0.635327
291	H	0.833251	0.512324	0.603077
292	H	0.85032	0.454344	0.412323
293	H	0.835865	0.515987	0.411972
294	H	0.834018	0.324342	0.409724
295	H	0.835194	0.322724	0.600795
296	H	0.849626	0.398778	0.60039
297	C	0.694282	0.522387	0.671889
298	C	0.67131	0.50445	0.630787
299	C	0.626697	0.467776	0.630638
300	C	0.60489	0.447667	0.671892
301	N	0.628365	0.466482	0.377318
302	C	0.670807	0.502683	0.378993
303	C	0.563062	0.405867	0.340612
304	C	0.54295	0.384025	0.381855
305	C	0.506307	0.339403	0.381676
306	C	0.488318	0.316437	0.340568
307	C	0.508059	0.339961	0.633508
308	N	0.544233	0.382403	0.635189
309	H	0.498291	0.324179	0.602868
310	H	0.556631	0.398819	0.412212
311	H	0.494976	0.322766	0.411796
312	H	0.686658	0.512422	0.409606
313	H	0.687943	0.515851	0.600677
314	H	0.611807	0.454175	0.600292
315	C	0.958507	0.980766	0.67256
316	C	0.982069	0.956537	0.672608
317	C	0.029861	0.980715	0.672591
318	H	0.923859	0.963465	0.672341
319	H	0.047171	0.96338	0.672375
320	C	0.462279	0.196692	0.672452
321	C	0.485636	0.244345	0.672766
322	C	0.462285	0.268656	0.673536
323	C	0.414543	0.244611	0.674144
324	C	0.39037	0.196734	0.67361
325	C	0.414531	0.173012	0.672729
326	H	0.397382	0.262072	0.674792
327	H	0.397367	0.138394	0.672547
328	H	0.520347	0.261689	0.672527
329	C	0.814154	0.268747	0.672442
330	C	0.766488	0.244451	0.672824
331	C	0.742173	0.196803	0.673614
332	C	0.76623	0.173119	0.674232
333	C	0.814121	0.196824	0.673614
334	C	0.837846	0.244695	0.672682
335	H	0.748767	0.138508	0.67492
336	H	0.872476	0.262148	0.672459
337	H	0.749132	0.261805	0.672628
338	C	0.742082	0.54844	0.672392
339	C	0.766421	0.525114	0.672793
340	C	0.814085	0.54848	0.673631
341	C	0.837737	0.596207	0.674259
342	C	0.813992	0.620351	0.673604
343	C	0.766105	0.59617	0.672618
344	H	0.872361	0.61338	0.674984
345	H	0.748622	0.613312	0.672358
346	H	0.749087	0.490413	0.672571
347	C	0.342441	0.172772	0.674245
348	C	0.318289	0.162135	0.715303
349	C	0.270652	0.138239	0.715435
350	N	0.271323	0.135859	0.968792
351	C	0.317223	0.158718	0.967202
352	H	0.33293	0.165542	0.936477
353	H	0.335228	0.171632	0.745423
354	C	0.838085	0.172858	0.674245
355	C	0.848604	0.159225	0.715296
356	C	0.872453	0.135441	0.715421
357	N	0.875005	0.138666	0.968789
358	C	0.852202	0.16176	0.967205
359	H	0.84545	0.170715	0.936484
360	H	0.839047	0.166605	0.745413
361	C	0.837929	0.668267	0.674242
362	C	0.851615	0.692411	0.715293
363	C	0.875361	0.740033	0.715425
364	C	0.885946	0.764275	0.674191
365	N	0.871998	0.739367	0.968799
366	C	0.848933	0.693482	0.967209
367	C	0.910081	0.812617	0.005387
368	C	0.921583	0.836859	0.96412
369	C	0.945401	0.884477	0.964248
370	C	0.958086	0.908621	0.005333
371	C	0.946088	0.883416	0.712407
372	N	0.923119	0.837531	0.710813
373	H	0.954393	0.899123	0.743148
374	H	0.91292	0.820355	0.93378
375	H	0.953443	0.90141	0.934108
376	H	0.839939	0.677779	0.936488
377	H	0.844299	0.675475	0.745406
378	H	0.884789	0.756533	0.745737
379	C	0.488295	0.174917	0.005357
380	C	0.506376	0.170089	0.964238
381	C	0.543058	0.162156	0.964059
382	C	0.563068	0.160254	0.005309
383	N	0.544117	0.164714	0.710732
384	C	0.507847	0.170852	0.71243
385	C	0.604928	0.16033	0.674049
386	C	0.626649	0.161819	0.715303
387	C	0.671281	0.169787	0.715165
388	C	0.694378	0.175046	0.67409
389	C	0.670961	0.171494	0.966999
390	N	0.628487	0.16518	0.968643
391	H	0.686815	0.177662	0.93638
392	H	0.611759	0.160525	0.745653
393	H	0.687884	0.174992	0.745292
394	H	0.498156	0.17697	0.743067
395	H	0.495182	0.175611	0.934135
396	H	0.556832	0.161174	0.933713
397	C	0.835922	0.316528	0.00535
398	C	0.840709	0.339427	0.964234
399	C	0.848607	0.384018	0.964076
400	C	0.850559	0.405925	0.005333
401	N	0.846165	0.382548	0.710759
402	C	0.839955	0.340126	0.712423
403	C	0.85059	0.447752	0.674053
404	C	0.849071	0.467962	0.715307
405	C	0.841111	0.504623	0.715178
406	C	0.83588	0.522481	0.67411
407	C	0.839494	0.502666	0.967006
408	N	0.845753	0.466486	0.96866
409	H	0.833251	0.512324	0.93641
410	H	0.85032	0.454344	0.745656
411	H	0.835865	0.515987	0.745305
412	H	0.834018	0.324342	0.743057
413	H	0.835194	0.322724	0.934131
414	H	0.849626	0.398778	0.933723
415	C	0.694282	0.522387	0.005222
416	C	0.67131	0.50445	0.964123
417	C	0.626697	0.467776	0.963971
418	C	0.60489	0.447667	0.005228
419	N	0.628365	0.466482	0.710651
420	C	0.670807	0.502683	0.712326
421	C	0.563062	0.405867	0.673945
422	C	0.54295	0.384025	0.715188
423	C	0.506307	0.339403	0.715009
424	C	0.488318	0.316437	0.673901
425	C	0.508059	0.339961	0.966844
426	N	0.544233	0.382403	0.968522
427	H	0.498291	0.324179	0.936201
428	H	0.556631	0.398819	0.745545
429	H	0.494976	0.322766	0.745133
430	H	0.686658	0.512422	0.742939
431	H	0.687943	0.515851	0.93401
432	H	0.611807	0.454175	0.933625
