data_C144H72N54O54_2018-02-15_10:32:30
#******************************************
#
# CIF file created by Zeo++
# Zeo++ is an open source package to
# analyze microporous materials
#
#*******************************************

_cell_length_a		29.1177   
_cell_length_b		29.1185   
_cell_length_c		30.1408   
_cell_angle_alpha		90   
_cell_angle_beta		90   
_cell_angle_gamma		120.001   

_symmetry_space_group_name_H-M		'P1'
_symmetry_Int_Tables_number		1
_symmetry_cell_setting		Monoclinic

loop_
_symmetry_equiv_pos_as_xyz
'+x,+y,+z'

loop_
_atom_site_label
_atom_site_type_symbol
_atom_site_fract_x
_atom_site_fract_y
_atom_site_fract_z
1	C	0.27562	0.635477	0.969724
2	N	0.304875	0.610986	0.97003
3	C	0.35868	0.638975	0.303006
4	N	0.383178	0.69272	0.97007
5	C	0.355196	0.718543	0.969761
6	N	0.301447	0.689282	0.970119
7	C	0.389131	0.613837	0.973686
8	C	0.380331	0.774117	0.30721
9	C	0.220034	0.605033	0.973779
10	O	0.350938	0.79697	0.963829
11	O	0.197193	0.552799	0.963696
12	O	0.441379	0.643265	0.963653
13	C	0.716099	0.367051	0.998669
14	N	0.679837	0.383331	0.998528
15	C	0.627039	0.347839	0.332025
16	N	0.610766	0.295302	0.998499
17	C	0.646254	0.277995	0.998641
18	N	0.698794	0.314256	0.998478
19	C	0.589727	0.365034	0.998201
20	C	0.629012	0.223478	0.3314
21	C	0.770612	0.404352	0.998126
22	O	0.663055	0.208461	0.982156
23	O	0.785604	0.45345	0.982332
24	O	0.540616	0.330934	0.982428
25	C	0.565603	0.430342	0.015133
26	C	0.547362	0.439547	0.307987
27	C	0.511067	0.457832	0.307797
28	C	0.491502	0.466385	0.014701
29	C	0.509856	0.457594	0.055745
30	C	0.547344	0.440133	0.055405
31	H	0.560402	0.433245	0.08481
32	C	0.456709	0.487205	0.012304
33	C	0.406778	0.459533	0.323996
34	C	0.377125	0.485412	0.317396
35	C	0.39685	0.538499	0.330769
36	C	0.445172	0.564255	0.021099
37	C	0.475032	0.539217	0.028003
38	H	0.341681	0.465906	0.300963
39	H	0.45951	0.6019	0.032888
40	H	0.561134	0.433836	0.278476
41	H	0.511185	0.560104	0.043209
42	H	0.499481	0.465358	0.277896
43	N	0.489587	0.465172	0.096109
44	N	0.387558	0.406767	0.309381
45	O	0.380444	0.402667	0.268113
46	O	0.525843	0.499514	0.120042
47	O	0.465501	0.422729	0.117786
48	O	0.344659	0.375089	0.328135
49	N	0.36822	0.563026	0.321888
50	H	0.329903	0.541652	0.325613
51	N	0.600975	0.412819	0.015195
52	H	0.63346	0.43334	0.032264
53	C	0.563727	0.134065	0.014837
54	C	0.554519	0.106522	0.307742
55	C	0.536354	0.051966	0.307652
56	C	0.527918	0.023968	0.014608
57	C	0.536703	0.051206	0.055601
58	C	0.554043	0.106126	0.055161
59	H	0.56093	0.126142	0.084528
60	C	0.507071	0.968346	0.012294
61	C	0.534715	0.946036	0.324017
62	C	0.508834	0.890486	0.317515
63	C	0.455741	0.857164	0.330899
64	C	0.430028	0.879771	0.021234
65	C	0.455077	0.934686	0.028047
66	H	0.528279	0.874529	0.30102
67	H	0.392389	0.856493	0.033043
68	H	0.560116	0.125908	0.278195
69	H	0.434232	0.949981	0.043277
70	H	0.528777	0.032773	0.277786
71	N	0.5292	0.023469	0.096015
72	N	0.587454	0.979549	0.309329
73	O	0.591489	0.97644	0.268064
74	O	0.494829	0.025357	0.119926
75	O	0.571665	0.041956	0.117679
76	O	0.619169	0.968382	0.328087
77	N	0.431167	0.804001	0.322029
78	H	0.452531	0.787041	0.325722
79	N	0.581033	0.186923	0.01474
80	H	0.560776	0.198871	0.032192
81	C	0.860048	0.428534	0.015042
82	C	0.887525	0.446815	0.307913
83	C	0.9421	0.483148	0.307754
84	C	0.970185	0.502706	0.014674
85	C	0.943008	0.484318	0.055702
86	C	0.888065	0.446796	0.05533
87	H	0.868103	0.433709	0.084724
88	C	0.025799	0.5375	0.012306
89	C	0.048078	0.58743	0.323997
90	C	0.103615	0.617077	0.317415
91	C	0.136966	0.597344	0.330805
92	C	0.114381	0.54902	0.021134
93	C	0.059477	0.519171	0.028021
94	H	0.119566	0.652517	0.30098
95	H	0.137676	0.534672	0.032932
96	H	0.868077	0.433039	0.27839
97	H	0.044198	0.483013	0.043224
98	H	0.961236	0.494747	0.277864
99	N	0.970822	0.504578	0.096082
100	N	0.014545	0.606655	0.309361
101	O	0.017577	0.613765	0.268093
102	O	0.968916	0.468321	0.120008
103	O	0.952423	0.528629	0.117754
104	O	0.025762	0.649555	0.328109
105	N	0.190131	0.62596	0.321936
106	H	0.207077	0.664279	0.325658
107	N	0.80717	0.393086	0.015055
108	H	0.795191	0.360704	0.032265
109	C	0.27562	0.635477	0.303056
110	N	0.304875	0.610986	0.303361
111	C	0.35868	0.638975	0.636339
112	N	0.383178	0.69272	0.303403
113	C	0.355196	0.718543	0.303093
114	N	0.301447	0.689282	0.303453
115	C	0.389131	0.613837	0.307019
116	C	0.380331	0.774117	0.640543
117	C	0.220034	0.605033	0.307113
118	O	0.350938	0.79697	0.297163
119	O	0.197193	0.552799	0.29703
120	O	0.441379	0.643265	0.296985
121	C	0.716099	0.367051	0.332001
122	N	0.679837	0.383331	0.331862
123	C	0.627039	0.347839	0.66536
124	N	0.610766	0.295302	0.331832
125	C	0.646254	0.277995	0.331975
126	N	0.698794	0.314256	0.331812
127	C	0.589727	0.365034	0.331535
128	C	0.629012	0.223478	0.664733
129	C	0.770612	0.404352	0.33146
130	O	0.663055	0.208461	0.315487
131	O	0.785604	0.45345	0.315663
132	O	0.540616	0.330934	0.315761
133	C	0.565603	0.430342	0.348468
134	C	0.547362	0.439547	0.641319
135	C	0.511067	0.457832	0.64113
136	C	0.491502	0.466385	0.348036
137	C	0.509856	0.457594	0.38908
138	C	0.547344	0.440133	0.388738
139	H	0.560402	0.433245	0.418144
140	C	0.456709	0.487205	0.345637
141	C	0.406778	0.459533	0.657331
142	C	0.377125	0.485412	0.650729
143	C	0.39685	0.538499	0.664102
144	C	0.445172	0.564255	0.354433
145	C	0.475032	0.539217	0.361337
146	H	0.341681	0.465906	0.634296
147	H	0.45951	0.6019	0.366221
148	H	0.561134	0.433836	0.611808
149	H	0.511185	0.560104	0.376542
150	H	0.499481	0.465358	0.611231
151	N	0.489587	0.465172	0.429444
152	N	0.387558	0.406767	0.642713
153	O	0.380444	0.402667	0.601447
154	O	0.525843	0.499514	0.453375
155	O	0.465501	0.422729	0.451119
156	O	0.344659	0.375089	0.661468
157	N	0.36822	0.563026	0.655221
158	H	0.329903	0.541652	0.658947
159	N	0.600975	0.412819	0.348527
160	H	0.63346	0.43334	0.365597
161	C	0.563727	0.134065	0.348169
162	C	0.554519	0.106522	0.641077
163	C	0.536354	0.051966	0.640984
164	C	0.527918	0.023968	0.34794
165	C	0.536703	0.051206	0.388934
166	C	0.554043	0.106126	0.388496
167	H	0.56093	0.126142	0.417862
168	C	0.507071	0.968346	0.345628
169	C	0.534715	0.946036	0.657351
170	C	0.508834	0.890486	0.650848
171	C	0.455741	0.857164	0.664232
172	C	0.430028	0.879771	0.354569
173	C	0.455077	0.934686	0.36138
174	H	0.528279	0.874529	0.634352
175	H	0.392389	0.856493	0.366377
176	H	0.560116	0.125908	0.611529
177	H	0.434232	0.949981	0.376612
178	H	0.528777	0.032773	0.611121
179	N	0.5292	0.023469	0.429348
180	N	0.587454	0.979549	0.642663
181	O	0.591489	0.97644	0.601397
182	O	0.494829	0.025357	0.453259
183	O	0.571665	0.041956	0.451013
184	O	0.619169	0.968382	0.661422
185	N	0.431167	0.804001	0.655364
186	H	0.452531	0.787041	0.659056
187	N	0.581033	0.186923	0.348073
188	H	0.560776	0.198871	0.365527
189	C	0.860048	0.428534	0.348375
190	C	0.887525	0.446815	0.641246
191	C	0.9421	0.483148	0.641087
192	C	0.970185	0.502706	0.348006
193	C	0.943008	0.484318	0.389034
194	C	0.888065	0.446796	0.388662
195	H	0.868103	0.433709	0.418057
196	C	0.025799	0.5375	0.345641
197	C	0.048078	0.58743	0.657331
198	C	0.103615	0.617077	0.650749
199	C	0.136966	0.597344	0.664139
200	C	0.114381	0.54902	0.354469
201	C	0.059477	0.519171	0.361354
202	H	0.119566	0.652517	0.634312
203	H	0.137676	0.534672	0.366264
204	H	0.868077	0.433039	0.611725
205	H	0.044198	0.483013	0.376556
206	H	0.961236	0.494747	0.611198
207	N	0.970822	0.504578	0.429414
208	N	0.014545	0.606655	0.642696
209	O	0.017577	0.613765	0.601427
210	O	0.968916	0.468321	0.453342
211	O	0.952423	0.528629	0.451086
212	O	0.025762	0.649555	0.661442
213	N	0.190131	0.62596	0.655271
214	H	0.207077	0.664279	0.658993
215	N	0.80717	0.393086	0.348388
216	H	0.795191	0.360704	0.3656
217	C	0.27562	0.635477	0.636389
218	N	0.304875	0.610986	0.636694
219	C	0.35868	0.638975	0.969675
220	N	0.383178	0.69272	0.636738
221	C	0.355196	0.718543	0.636426
222	N	0.301447	0.689282	0.636787
223	C	0.389131	0.613837	0.640354
224	C	0.380331	0.774117	0.973878
225	C	0.220034	0.605033	0.640447
226	O	0.350938	0.79697	0.630497
227	O	0.197193	0.552799	0.630364
228	O	0.441379	0.643265	0.630318
229	C	0.716099	0.367051	0.665337
230	N	0.679837	0.383331	0.665197
231	C	0.627039	0.347839	0.998692
232	N	0.610766	0.295302	0.665167
233	C	0.646254	0.277995	0.66531
234	N	0.698794	0.314256	0.665144
235	C	0.589727	0.365034	0.664869
236	C	0.629012	0.223478	0.998066
237	C	0.770612	0.404352	0.664793
238	O	0.663055	0.208461	0.648821
239	O	0.785604	0.45345	0.648997
240	O	0.540616	0.330934	0.649096
241	C	0.565603	0.430342	0.681799
242	C	0.547362	0.439547	0.974655
243	C	0.511067	0.457832	0.974466
244	C	0.491502	0.466385	0.681368
245	C	0.509856	0.457594	0.722412
246	C	0.547344	0.440133	0.722074
247	H	0.560402	0.433245	0.751479
248	C	0.456709	0.487205	0.678973
249	C	0.406778	0.459533	0.990663
250	C	0.377125	0.485412	0.984064
251	C	0.39685	0.538499	0.997438
252	C	0.445172	0.564255	0.687768
253	C	0.475032	0.539217	0.694669
254	H	0.341681	0.465906	0.967631
255	H	0.45951	0.6019	0.699556
256	H	0.561134	0.433836	0.945143
257	H	0.511185	0.560104	0.709878
258	H	0.499481	0.465358	0.944563
259	N	0.489587	0.465172	0.762776
260	N	0.387558	0.406767	0.976048
261	O	0.380444	0.402667	0.934782
262	O	0.525843	0.499514	0.78671
263	O	0.465501	0.422729	0.784454
264	O	0.344659	0.375089	0.994803
265	N	0.36822	0.563026	0.988556
266	H	0.329903	0.541652	0.992282
267	N	0.600975	0.412819	0.681862
268	H	0.63346	0.43334	0.698932
269	C	0.563727	0.134065	0.681504
270	C	0.554519	0.106522	0.974409
271	C	0.536354	0.051966	0.97432
272	C	0.527918	0.023968	0.681275
273	C	0.536703	0.051206	0.722269
274	C	0.554043	0.106126	0.721828
275	H	0.56093	0.126142	0.751197
276	C	0.507071	0.968346	0.678963
277	C	0.534715	0.946036	0.990683
278	C	0.508834	0.890486	0.984183
279	C	0.455741	0.857164	0.997567
280	C	0.430028	0.879771	0.687901
281	C	0.455077	0.934686	0.694715
282	H	0.528279	0.874529	0.967687
283	H	0.392389	0.856493	0.699712
284	H	0.560116	0.125908	0.944861
285	H	0.434232	0.949981	0.709944
286	H	0.528777	0.032773	0.944453
287	N	0.5292	0.023469	0.762683
288	N	0.587454	0.979549	0.975995
289	O	0.591489	0.97644	0.934732
290	O	0.494829	0.025357	0.786594
291	O	0.571665	0.041956	0.784345
292	O	0.619169	0.968382	0.994754
293	N	0.431167	0.804001	0.988695
294	H	0.452531	0.787041	0.992388
295	N	0.581033	0.186923	0.681408
296	H	0.560776	0.198871	0.698859
297	C	0.860048	0.428534	0.68171
298	C	0.887525	0.446815	0.974578
299	C	0.9421	0.483148	0.974422
300	C	0.970185	0.502706	0.681342
301	C	0.943008	0.484318	0.722369
302	C	0.888065	0.446796	0.721997
303	H	0.868103	0.433709	0.751393
304	C	0.025799	0.5375	0.678973
305	C	0.048078	0.58743	0.990663
306	C	0.103615	0.617077	0.984084
307	C	0.136966	0.597344	0.997474
308	C	0.114381	0.54902	0.687801
309	C	0.059477	0.519171	0.694689
310	H	0.119566	0.652517	0.967648
311	H	0.137676	0.534672	0.699599
312	H	0.868077	0.433039	0.945057
313	H	0.044198	0.483013	0.709891
314	H	0.961236	0.494747	0.944533
315	N	0.970822	0.504578	0.762749
316	N	0.014545	0.606655	0.976028
317	O	0.017577	0.613765	0.934762
318	O	0.968916	0.468321	0.786677
319	O	0.952423	0.528629	0.784421
320	O	0.025762	0.649555	0.994777
321	N	0.190131	0.62596	0.988603
322	H	0.207077	0.664279	0.992325
323	N	0.80717	0.393086	0.681723
324	H	0.795191	0.360704	0.698932
