data_C243H108N54O27_2018-02-15_10:40:03
#******************************************
#
# CIF file created by Zeo++
# Zeo++ is an open source package to
# analyze microporous materials
#
#*******************************************

_cell_length_a		30.2473   
_cell_length_b		30.2473   
_cell_length_c		29.402   
_cell_angle_alpha		90   
_cell_angle_beta		90   
_cell_angle_gamma		120   

_symmetry_space_group_name_H-M		'P1'
_symmetry_Int_Tables_number		1
_symmetry_cell_setting		Monoclinic

loop_
_symmetry_equiv_pos_as_xyz
'+x,+y,+z'

loop_
_atom_site_label
_atom_site_type_symbol
_atom_site_fract_x
_atom_site_fract_y
_atom_site_fract_z
1	C	0.123901	0.560303	0.995963
2	H	0.130848	0.633867	0.998269
3	C	0.038145	0.486144	0.016038
4	C	0.069193	0.532462	0.326179
5	N	0.043671	0.55137	0.302437
6	H	0.053471	0.469652	0.036147
7	C	0.123901	0.560303	0.329295
8	H	0.130848	0.633867	0.331603
9	C	0.038145	0.486144	0.349371
10	C	0.069193	0.532462	0.659513
11	N	0.043671	0.55137	0.63577
12	H	0.053471	0.469652	0.369482
13	C	0.123901	0.560303	0.662628
14	H	0.130848	0.633867	0.664938
15	C	0.038145	0.486144	0.682705
16	C	0.069193	0.532462	0.992844
17	N	0.043671	0.55137	0.969104
18	H	0.053471	0.469652	0.702813
19	C	0.204996	0.561105	0.010195
20	C	0.228607	0.614249	0.017473
21	C	0.20278	0.641999	0.012129
22	C	0.150574	0.61452	0.999884
23	C	0.152583	0.534695	0.998721
24	H	0.134557	0.495837	0.995225
25	H	0.267078	0.634112	0.02426
26	C	0.252965	0.521357	0.312591
27	C	0.2354	0.538112	0.016343
28	N	0.265182	0.552111	0.054145
29	H	0.23639	0.515871	0.281233
30	C	0.230975	0.695452	0.019865
31	N	0.246412	0.725843	0.315448
32	C	0.262374	0.715242	0.059237
33	C	0.253071	0.688527	0.099862
34	O	0.280021	0.709405	0.132946
35	H	0.216816	0.663789	0.106916
36	C	0.204996	0.561105	0.343528
37	C	0.228607	0.614249	0.350806
38	C	0.20278	0.641999	0.345463
39	C	0.150574	0.61452	0.333216
40	C	0.152583	0.534695	0.332053
41	H	0.134557	0.495837	0.328559
42	H	0.267078	0.634112	0.357595
43	C	0.252965	0.521357	0.645925
44	C	0.2354	0.538112	0.349677
45	N	0.265182	0.552111	0.387477
46	H	0.23639	0.515871	0.614567
47	C	0.230975	0.695452	0.353197
48	N	0.246412	0.725843	0.648782
49	C	0.262374	0.715242	0.392572
50	C	0.253071	0.688527	0.433195
51	O	0.280021	0.709405	0.466281
52	H	0.216816	0.663789	0.440249
53	C	0.204996	0.561105	0.676862
54	C	0.228607	0.614249	0.684141
55	C	0.20278	0.641999	0.678794
56	C	0.150574	0.61452	0.66655
57	C	0.152583	0.534695	0.665387
58	H	0.134557	0.495837	0.66189
59	H	0.267078	0.634112	0.690926
60	C	0.252965	0.521357	0.979257
61	C	0.2354	0.538112	0.683011
62	N	0.265182	0.552111	0.720812
63	H	0.23639	0.515871	0.947898
64	C	0.230975	0.695452	0.686532
65	N	0.246412	0.725843	0.982113
66	C	0.262374	0.715242	0.725903
67	C	0.253071	0.688527	0.76653
68	O	0.280021	0.709405	0.799612
69	H	0.216816	0.663789	0.773583
70	N	0.300312	0.526301	0.315341
71	C	0.309143	0.551	0.059493
72	O	0.314049	0.573356	0.133656
73	C	0.28888	0.773196	0.313301
74	N	0.307506	0.759228	0.054281
75	H	0.299928	0.790844	0.282358
76	N	0.300312	0.526301	0.648674
77	C	0.309143	0.551	0.392827
78	O	0.314049	0.573356	0.466989
79	C	0.28888	0.773196	0.646636
80	N	0.307506	0.759228	0.387613
81	H	0.299928	0.790844	0.615693
82	N	0.300312	0.526301	0.982008
83	C	0.309143	0.551	0.726158
84	O	0.314049	0.573356	0.800323
85	C	0.28888	0.773196	0.979967
86	N	0.307506	0.759228	0.720948
87	H	0.299928	0.790844	0.949024
88	C	0.464103	0.648802	0.011591
89	C	0.410997	0.619021	0.019077
90	C	0.383306	0.565556	0.012938
91	C	0.410837	0.541094	1.4e-05
92	C	0.46506	0.568778	0.996187
93	C	0.490526	0.623045	0.999279
94	H	0.391574	0.50204	0.998123
95	H	0.529357	0.643999	0.995613
96	H	0.391026	0.637425	0.026239
97	C	0.376782	0.820419	0.011233
98	C	0.4065	0.79709	0.019014
99	C	0.460048	0.822893	0.013442
100	C	0.484617	0.874891	0.000507
101	C	0.456944	0.901412	0.99632
102	C	0.402654	0.872627	0.999044
103	H	0.523684	0.894697	0.998905
104	H	0.38174	0.89052	0.995153
105	H	0.388	0.758655	0.025916
106	C	0.8263	0.457318	0.013077
107	C	0.80229	0.404327	0.021264
108	C	0.826912	0.375572	0.014928
109	C	0.878344	0.402013	0.000272
110	C	0.905815	0.45615	0.994735
111	C	0.87805	0.482582	0.999425
112	H	0.896993	0.381754	0.996888
113	H	0.896638	0.521544	0.997691
114	H	0.764043	0.385147	0.02896
115	C	0.568424	0.374459	0.013058
116	C	0.621349	0.403521	0.021557
117	C	0.650057	0.45689	0.015189
118	C	0.623602	0.481819	0.000401
119	C	0.569493	0.455096	0.994708
120	C	0.543142	0.400879	0.999252
121	H	0.643826	0.520739	0.997078
122	H	0.504194	0.380429	0.997364
123	H	0.640549	0.384514	0.029415
124	C	0.651008	0.199233	0.012629
125	C	0.621929	0.223158	0.020747
126	C	0.568538	0.198374	0.014541
127	C	0.5436	0.146851	0.000167
128	C	0.570386	0.119509	0.994568
129	C	0.624604	0.14743	0.999119
130	H	0.504674	0.128085	0.996881
131	H	0.645064	0.128933	0.997402
132	H	0.640916	0.261403	0.028472
133	C	0.960746	0.483048	0.323359
134	N	0.986578	0.464491	0.014047
135	C	0.991772	0.529435	0.299171
136	C	0.972222	0.552226	0.271059
137	O	0.000811	0.594447	0.255032
138	H	0.943307	0.529328	0.25111
139	C	0.54253	0.483075	0.323314
140	N	0.561075	0.527488	0.013962
141	C	0.539389	0.557368	0.015969
142	C	0.493027	0.542044	0.326166
143	N	0.47411	0.497574	0.302476
144	C	0.496087	0.467648	0.299204
145	H	0.555875	0.589179	0.036087
146	C	0.473204	0.425273	0.271121
147	O	0.430583	0.410931	0.255762
148	H	0.496468	0.420089	0.25087
149	C	0.542476	0.064563	0.323259
150	N	0.498087	0.038687	0.013939
151	C	0.468244	0.987115	0.015975
152	C	0.483678	0.956102	0.326281
153	N	0.528135	0.981652	0.302576
154	C	0.557966	0.033548	0.29924
155	H	0.4365	0.971773	0.036179
156	C	0.600217	0.052914	0.27111
157	O	0.614842	0.024981	0.255449
158	H	0.606639	0.082174	0.251376
159	C	0.329793	0.540151	0.020339
160	C	0.334996	0.567473	0.100516
161	H	0.360357	0.55681	0.107842
162	C	0.485308	0.79467	0.021165
163	N	0.500282	0.779506	0.316589
164	C	0.504985	0.736945	0.314175
165	C	0.486919	0.702232	0.017607
166	N	0.472205	0.717815	0.055101
167	C	0.473537	0.763007	0.060357
168	H	0.511634	0.726088	0.283158
169	C	0.456331	0.772303	0.101079
170	O	0.452158	0.746187	0.134334
171	H	0.466872	0.808279	0.108247
172	C	0.323306	0.789753	0.016937
173	C	0.703482	0.481353	0.02318
174	N	0.733823	0.496291	0.318715
175	C	0.780896	0.500486	0.316334
176	C	0.796593	0.481086	0.019486
177	N	0.766307	0.466812	0.05698
178	C	0.723026	0.469164	0.062333
179	H	0.798117	0.506568	0.285238
180	C	0.69657	0.452195	0.103032
181	O	0.7165	0.444567	0.136
182	H	0.671893	0.463666	0.110606
183	C	0.544042	0.227252	0.022649
184	N	0.529406	0.243154	0.31828
185	C	0.525469	0.286189	0.316044
186	C	0.544795	0.320978	0.019397
187	N	0.558768	0.304669	0.056842
188	C	0.556215	0.258906	0.061891
189	H	0.519339	0.297308	0.28495
190	C	0.57281	0.248944	0.102584
191	O	0.580388	0.276273	0.135716
192	H	0.561112	0.212695	0.109945
193	C	0.797794	0.322105	0.022695
194	N	0.782517	0.291743	0.318247
195	C	0.739477	0.244812	0.315837
196	C	0.704492	0.229069	0.019036
197	N	0.720377	0.259285	0.056556
198	C	0.766009	0.302619	0.061871
199	H	0.728574	0.227206	0.284864
200	C	0.775717	0.329123	0.102631
201	O	0.749101	0.307635	0.135765
202	H	0.811867	0.353827	0.109959
203	C	0.464103	0.648802	0.344926
204	C	0.410997	0.619021	0.352411
205	C	0.383306	0.565556	0.346272
206	C	0.410837	0.541094	0.333348
207	C	0.46506	0.568778	0.329522
208	C	0.490526	0.623045	0.332614
209	H	0.391574	0.50204	0.331457
210	H	0.529357	0.643999	0.328945
211	H	0.391026	0.637425	0.359571
212	C	0.376782	0.820419	0.344565
213	C	0.4065	0.79709	0.352347
214	C	0.460048	0.822893	0.346776
215	C	0.484617	0.874891	0.333839
216	C	0.456944	0.901412	0.329653
217	C	0.402654	0.872627	0.332377
218	H	0.523684	0.894697	0.332238
219	H	0.38174	0.89052	0.328487
220	H	0.388	0.758655	0.359251
221	C	0.8263	0.457318	0.346408
222	C	0.80229	0.404327	0.354598
223	C	0.826912	0.375572	0.348262
224	C	0.878344	0.402013	0.333607
225	C	0.905815	0.45615	0.328069
226	C	0.87805	0.482582	0.332759
227	H	0.896993	0.381754	0.330222
228	H	0.896638	0.521544	0.331024
229	H	0.764043	0.385147	0.362292
230	C	0.568424	0.374459	0.346391
231	C	0.621349	0.403521	0.354891
232	C	0.650057	0.45689	0.348524
233	C	0.623602	0.481819	0.333735
234	C	0.569493	0.455096	0.32804
235	C	0.543142	0.400879	0.332585
236	H	0.643826	0.520739	0.330412
237	H	0.504194	0.380429	0.330698
238	H	0.640549	0.384514	0.362747
239	C	0.651008	0.199233	0.345963
240	C	0.621929	0.223158	0.354081
241	C	0.568538	0.198374	0.347874
242	C	0.5436	0.146851	0.333499
243	C	0.570386	0.119509	0.3279
244	C	0.624604	0.14743	0.332453
245	H	0.504674	0.128085	0.330213
246	H	0.645064	0.128933	0.330735
247	H	0.640916	0.261403	0.361805
248	C	0.960746	0.483048	0.656693
249	N	0.986578	0.464491	0.347381
250	C	0.991772	0.529435	0.632505
251	C	0.972222	0.552226	0.604394
252	O	0.000811	0.594447	0.588365
253	H	0.943307	0.529328	0.584443
254	C	0.54253	0.483075	0.656646
255	N	0.561075	0.527488	0.347296
256	C	0.539389	0.557368	0.349303
257	C	0.493027	0.542044	0.659499
258	N	0.47411	0.497574	0.635811
259	C	0.496087	0.467648	0.632539
260	H	0.555875	0.589179	0.36942
261	C	0.473204	0.425273	0.604455
262	O	0.430583	0.410931	0.589096
263	H	0.496468	0.420089	0.584205
264	C	0.542476	0.064563	0.656591
265	N	0.498087	0.038687	0.347272
266	C	0.468244	0.987115	0.34931
267	C	0.483678	0.956102	0.659615
268	N	0.528135	0.981652	0.635909
269	C	0.557966	0.033548	0.632573
270	H	0.4365	0.971773	0.369512
271	C	0.600217	0.052914	0.604442
272	O	0.614842	0.024981	0.588783
273	H	0.606639	0.082174	0.584709
274	C	0.329793	0.540151	0.353673
275	C	0.334996	0.567473	0.433848
276	H	0.360357	0.55681	0.441174
277	C	0.485308	0.79467	0.3545
278	N	0.500282	0.779506	0.649922
279	C	0.504985	0.736945	0.647507
280	C	0.486919	0.702232	0.350939
281	N	0.472205	0.717815	0.388433
282	C	0.473537	0.763007	0.393691
283	H	0.511634	0.726088	0.616492
284	C	0.456331	0.772303	0.434413
285	O	0.452158	0.746187	0.467669
286	H	0.466872	0.808279	0.441579
287	C	0.323306	0.789753	0.350269
288	C	0.703482	0.481353	0.356513
289	N	0.733823	0.496291	0.652048
290	C	0.780896	0.500486	0.649667
291	C	0.796593	0.481086	0.35282
292	N	0.766307	0.466812	0.390314
293	C	0.723026	0.469164	0.395667
294	H	0.798117	0.506568	0.618574
295	C	0.69657	0.452195	0.436365
296	O	0.7165	0.444567	0.469332
297	H	0.671893	0.463666	0.443939
298	C	0.544042	0.227252	0.355983
299	N	0.529406	0.243154	0.651612
300	C	0.525469	0.286189	0.649378
301	C	0.544795	0.320978	0.352731
302	N	0.558768	0.304669	0.390174
303	C	0.556215	0.258906	0.395225
304	H	0.519339	0.297308	0.618284
305	C	0.57281	0.248944	0.435916
306	O	0.580388	0.276273	0.46905
307	H	0.561112	0.212695	0.443279
308	C	0.797794	0.322105	0.356027
309	N	0.782517	0.291743	0.651582
310	C	0.739477	0.244812	0.64917
311	C	0.704492	0.229069	0.352371
312	N	0.720377	0.259285	0.389888
313	C	0.766009	0.302619	0.395204
314	H	0.728574	0.227206	0.618196
315	C	0.775717	0.329123	0.435964
316	O	0.749101	0.307635	0.469097
317	H	0.811867	0.353827	0.443293
318	C	0.464103	0.648802	0.678257
319	C	0.410997	0.619021	0.685742
320	C	0.383306	0.565556	0.679603
321	C	0.410837	0.541094	0.666683
322	C	0.46506	0.568778	0.662856
323	C	0.490526	0.623045	0.665948
324	H	0.391574	0.50204	0.664792
325	H	0.529357	0.643999	0.662278
326	H	0.391026	0.637425	0.692905
327	C	0.376782	0.820419	0.677899
328	C	0.4065	0.79709	0.685681
329	C	0.460048	0.822893	0.68011
330	C	0.484617	0.874891	0.667172
331	C	0.456944	0.901412	0.662986
332	C	0.402654	0.872627	0.66571
333	H	0.523684	0.894697	0.66557
334	H	0.38174	0.89052	0.661819
335	H	0.388	0.758655	0.692582
336	C	0.8263	0.457318	0.679743
337	C	0.80229	0.404327	0.687929
338	C	0.826912	0.375572	0.681593
339	C	0.878344	0.402013	0.666941
340	C	0.905815	0.45615	0.661404
341	C	0.87805	0.482582	0.666091
342	H	0.896993	0.381754	0.663557
343	H	0.896638	0.521544	0.664356
344	H	0.764043	0.385147	0.695626
345	C	0.568424	0.374459	0.679726
346	C	0.621349	0.403521	0.688222
347	C	0.650057	0.45689	0.681855
348	C	0.623602	0.481819	0.66707
349	C	0.569493	0.455096	0.661373
350	C	0.543142	0.400879	0.665917
351	H	0.643826	0.520739	0.663744
352	H	0.504194	0.380429	0.66403
353	H	0.640549	0.384514	0.696082
354	C	0.651008	0.199233	0.679294
355	C	0.621929	0.223158	0.687412
356	C	0.568538	0.198374	0.681209
357	C	0.5436	0.146851	0.666832
358	C	0.570386	0.119509	0.661234
359	C	0.624604	0.14743	0.665785
360	H	0.504674	0.128085	0.663547
361	H	0.645064	0.128933	0.664067
362	H	0.640916	0.261403	0.69514
363	C	0.960746	0.483048	0.990025
364	N	0.986578	0.464491	0.680712
365	C	0.991772	0.529435	0.965839
366	C	0.972222	0.552226	0.937725
367	O	0.000811	0.594447	0.921699
368	H	0.943307	0.529328	0.917778
369	C	0.54253	0.483075	0.98998
370	N	0.561075	0.527488	0.680627
371	C	0.539389	0.557368	0.682634
372	C	0.493027	0.542044	0.99283
373	N	0.47411	0.497574	0.969142
374	C	0.496087	0.467648	0.96587
375	H	0.555875	0.589179	0.702755
376	C	0.473204	0.425273	0.937787
377	O	0.430583	0.410931	0.922427
378	H	0.496468	0.420089	0.917536
379	C	0.542476	0.064563	0.989926
380	N	0.498087	0.038687	0.680607
381	C	0.468244	0.987115	0.682641
382	C	0.483678	0.956102	0.992949
383	N	0.528135	0.981652	0.969244
384	C	0.557966	0.033548	0.965907
385	H	0.4365	0.971773	0.702847
386	C	0.600217	0.052914	0.937776
387	O	0.614842	0.024981	0.922114
388	H	0.606639	0.082174	0.918043
389	C	0.329793	0.540151	0.687004
390	C	0.334996	0.567473	0.767183
391	H	0.360357	0.55681	0.774509
392	C	0.485308	0.79467	0.687831
393	N	0.500282	0.779506	0.983256
394	C	0.504985	0.736945	0.980841
395	C	0.486919	0.702232	0.684273
396	N	0.472205	0.717815	0.721767
397	C	0.473537	0.763007	0.727025
398	H	0.511634	0.726088	0.949823
399	C	0.456331	0.772303	0.767744
400	O	0.452158	0.746187	0.801
401	H	0.466872	0.808279	0.774913
402	C	0.323306	0.789753	0.683603
403	C	0.703482	0.481353	0.689848
404	N	0.733823	0.496291	0.985382
405	C	0.780896	0.500486	0.983001
406	C	0.796593	0.481086	0.686151
407	N	0.766307	0.466812	0.723648
408	C	0.723026	0.469164	0.728998
409	H	0.798117	0.506568	0.951905
410	C	0.69657	0.452195	0.769699
411	O	0.7165	0.444567	0.802667
412	H	0.671893	0.463666	0.777274
413	C	0.544042	0.227252	0.689317
414	N	0.529406	0.243154	0.984947
415	C	0.525469	0.286189	0.982712
416	C	0.544795	0.320978	0.686062
417	N	0.558768	0.304669	0.723509
418	C	0.556215	0.258906	0.728556
419	H	0.519339	0.297308	0.951616
420	C	0.57281	0.248944	0.76925
421	O	0.580388	0.276273	0.802384
422	H	0.561112	0.212695	0.77661
423	C	0.797794	0.322105	0.689361
424	N	0.782517	0.291743	0.984913
425	C	0.739477	0.244812	0.982505
426	C	0.704492	0.229069	0.685702
427	N	0.720377	0.259285	0.723223
428	C	0.766009	0.302619	0.728539
429	H	0.728574	0.227206	0.951531
430	C	0.775717	0.329123	0.769298
431	O	0.749101	0.307635	0.802432
432	H	0.811867	0.353827	0.776624
