data_C252H108N144O72_2018-02-15_10:45:25
#******************************************
#
# CIF file created by Zeo++
# Zeo++ is an open source package to
# analyze microporous materials
#
#*******************************************

_cell_length_a		45.2431   
_cell_length_b		45.2432   
_cell_length_c		29.9844   
_cell_angle_alpha		90   
_cell_angle_beta		90   
_cell_angle_gamma		120   

_symmetry_space_group_name_H-M		'P1'
_symmetry_Int_Tables_number		1
_symmetry_cell_setting		Monoclinic

loop_
_symmetry_equiv_pos_as_xyz
'+x,+y,+z'

loop_
_atom_site_label
_atom_site_type_symbol
_atom_site_fract_x
_atom_site_fract_y
_atom_site_fract_z
1	C	0.978548	0.96348	0.997508
2	N	0.01316	0.980475	0.997281
3	C	0.03138	0.015187	0.997545
4	N	0.014382	0.032803	0.997328
5	C	0.979672	0.016312	0.997565
6	N	0.962057	0.981697	0.997301
7	N	0.96236	0.929767	0.996604
8	N	0.962144	0.032495	0.996694
9	N	0.06509	0.032714	0.996648
10	C	0.390806	0.192854	0.003694
11	N	0.408615	0.17609	0.007791
12	C	0.443231	0.193429	0.006441
13	N	0.459875	0.22786	0.002015
14	C	0.442674	0.245121	0.998579
15	N	0.408048	0.227467	0.998699
16	N	0.35714	0.174277	0.004408
17	N	0.460774	0.27839	0.992649
18	N	0.46138	0.177982	0.009883
19	C	0.802082	0.198147	0.003842
20	N	0.818863	0.232716	0.008015
21	C	0.801539	0.25001	0.0067
22	N	0.767114	0.232244	0.002225
23	C	0.749834	0.197786	0.998735
24	N	0.767474	0.1808	0.998795
25	N	0.820645	0.183042	0.00454
26	N	0.716576	0.18265	0.992669
27	N	0.816982	0.283602	0.010154
28	C	0.796744	0.604042	0.00378
29	N	0.762174	0.586209	0.007961
30	C	0.744926	0.551591	0.006681
31	N	0.76274	0.534976	0.002237
32	C	0.797197	0.552196	0.998739
33	N	0.814133	0.586819	0.998759
34	N	0.811813	0.637705	0.004438
35	N	0.812374	0.534114	0.992696
36	N	0.711335	0.533389	0.010151
37	C	0.299693	0.158797	0.332951
38	C	0.276021	0.163894	0.308361
39	N	0.242322	0.140486	0.310003
40	C	0.228664	0.111214	0.334367
41	C	0.251101	0.104752	0.027016
42	C	0.286496	0.128814	0.025758
43	H	0.302714	0.124188	0.044384
44	C	0.192592	0.08935	0.333298
45	C	0.17238	0.08284	0.294287
46	C	0.136593	0.060977	0.297729
47	C	0.121115	0.04579	0.005406
48	C	0.142431	0.053023	0.042876
49	N	0.17651	0.074213	0.038757
50	H	0.121879	0.055628	0.269668
51	H	0.132723	0.042693	0.073429
52	H	0.28373	0.185015	0.288806
53	N	0.187953	0.09671	0.252681
54	N	0.238382	0.074402	0.052367
55	O	0.177229	0.115198	0.236408
56	O	0.244725	0.080787	0.093167
57	O	0.250739	0.056398	0.039559
58	O	0.182725	0.07368	0.225092
59	C	0.086498	0.023452	0.008718
60	C	0.334257	0.182756	0.331308
61	H	0.078478	0.00053	0.022051
62	H	0.341362	0.206846	0.323816
63	C	0.836117	0.141074	0.332999
64	C	0.831014	0.112311	0.308392
65	N	0.854412	0.102006	0.310029
66	C	0.883683	0.117606	0.334397
67	C	0.89016	0.14651	0.027045
68	C	0.866106	0.157855	0.025797
69	H	0.870742	0.178695	0.044426
70	C	0.905542	0.103394	0.333321
71	C	0.912048	0.089687	0.294311
72	C	0.933908	0.07576	0.297752
73	C	0.94909	0.075463	0.005431
74	C	0.941857	0.089545	0.042902
75	N	0.920675	0.102442	0.038781
76	H	0.939244	0.066379	0.269695
77	H	0.952183	0.090163	0.073457
78	H	0.809887	0.0989	0.288845
79	N	0.898172	0.091385	0.252709
80	N	0.920521	0.164141	0.052378
81	O	0.879677	0.062171	0.236444
82	O	0.914151	0.16411	0.093181
83	O	0.938527	0.194499	0.039557
84	O	0.921198	0.109181	0.225111
85	C	0.971413	0.063167	0.008759
86	C	0.812161	0.151687	0.331386
87	H	0.994359	0.078089	0.022017
88	H	0.788075	0.134719	0.323809
89	C	0.85377	0.695158	0.332898
90	C	0.882543	0.718825	0.308308
91	N	0.892847	0.752527	0.309955
92	C	0.877244	0.766194	0.334327
93	C	0.848341	0.743762	0.026973
94	C	0.836992	0.708363	0.025708
95	H	0.816148	0.692152	0.044332
96	C	0.891461	0.802267	0.333259
97	C	0.905176	0.822483	0.294253
98	C	0.919097	0.858267	0.297697
99	C	0.919403	0.873746	0.005379
100	C	0.905316	0.852428	0.042847
101	N	0.892411	0.818348	0.038721
102	H	0.928494	0.872986	0.269646
103	H	0.904697	0.862136	0.073402
104	H	0.89595	0.711109	0.288752
105	N	0.903482	0.806912	0.252648
106	N	0.830715	0.75649	0.052319
107	O	0.932699	0.817634	0.236389
108	O	0.830747	0.75014	0.093118
109	O	0.800356	0.744143	0.039503
110	O	0.885688	0.812144	0.225048
111	C	0.931695	0.908365	0.008702
112	C	0.843162	0.660594	0.331268
113	H	0.916809	0.916394	0.022065
114	H	0.86015	0.653488	0.323773
115	C	0.661398	0.169418	0.011362
116	C	0.634363	0.150217	0.041193
117	N	0.603422	0.147394	0.034413
118	C	0.59572	0.161528	0.999426
119	C	0.621786	0.180647	0.301045
120	C	0.654384	0.184177	0.307578
121	H	0.673749	0.199778	0.286448
122	C	0.563507	0.160029	0.998952
123	C	0.548769	0.166086	0.037244
124	C	0.519843	0.170042	0.031372
125	C	0.505636	0.168027	0.322029
126	C	0.520321	0.160117	0.28575
127	N	0.548341	0.157149	0.292097
128	H	0.510823	0.177044	0.058294
129	H	0.512078	0.159401	0.253805
130	H	0.638116	0.140015	0.069585
131	N	0.564418	0.171005	0.07959
132	N	0.616249	0.198279	0.265927
133	O	0.544316	0.149721	0.107496
134	O	0.621149	0.189046	0.228452
135	O	0.635108	0.230066	0.269446
136	O	0.574689	0.200578	0.094328
137	C	0.483243	0.17997	0.314133
138	C	0.694685	0.179085	0.022634
139	H	0.486832	0.193619	0.286452
140	H	0.702466	0.187827	0.053445
141	C	0.825615	0.492176	0.011394
142	C	0.84479	0.48433	0.041259
143	N	0.847631	0.45622	0.034484
144	C	0.833543	0.434412	0.999459
145	C	0.814454	0.441366	0.301048
146	C	0.810879	0.470403	0.307602
147	H	0.795342	0.474216	0.286409
148	C	0.835027	0.403691	0.998999
149	C	0.82891	0.38288	0.037297
150	C	0.824961	0.349997	0.03145
151	C	0.827014	0.337818	0.322112
152	C	0.834986	0.360423	0.285841
153	N	0.83799	0.391425	0.292171
154	H	0.817936	0.333975	0.058377
155	H	0.835858	0.352925	0.25393
156	H	0.854959	0.49827	0.069672
157	N	0.823935	0.393597	0.079623
158	N	0.796885	0.418231	0.265869
159	O	0.845185	0.394773	0.107584
160	O	0.806165	0.432411	0.228427
161	O	0.765092	0.405278	0.269311
162	O	0.794344	0.374292	0.0943
163	C	0.81515	0.303486	0.314271
164	C	0.815919	0.515774	0.022658
165	H	0.801647	0.293428	0.286492
166	H	0.807125	0.514771	0.053449
167	C	0.50266	0.333495	0.011519
168	C	0.510394	0.360625	0.041131
169	N	0.538545	0.39154	0.034343
170	C	0.560529	0.399086	0.999562
171	C	0.553713	0.372921	0.301409
172	C	0.524623	0.34035	0.307982
173	H	0.520882	0.32092	0.286991
174	C	0.591242	0.431293	0.999036
175	C	0.611956	0.446126	0.037376
176	C	0.644856	0.475033	0.031531
177	C	0.657131	0.489111	0.322162
178	C	0.63463	0.474336	0.285819
179	N	0.603603	0.446369	0.292156
180	H	0.660791	0.484149	0.058529
181	H	0.642176	0.48261	0.253887
182	H	0.496243	0.356985	0.069301
183	N	0.601103	0.430583	0.079761
184	N	0.577021	0.378329	0.266528
185	O	0.599862	0.450764	0.107478
186	O	0.563037	0.373304	0.228932
187	O	0.58992	0.359471	0.270448
188	O	0.620363	0.420344	0.094761
189	C	0.691474	0.511557	0.314356
190	C	0.478869	0.30025	0.022775
191	H	0.70157	0.508142	0.286584
192	H	0.479803	0.292419	0.053557
193	C	0.978548	0.96348	0.330842
194	N	0.01316	0.980475	0.330613
195	C	0.03138	0.015187	0.330879
196	N	0.014382	0.032803	0.330659
197	C	0.979672	0.016312	0.330899
198	N	0.962057	0.981697	0.330635
199	N	0.96236	0.929767	0.329938
200	N	0.962144	0.032495	0.330026
201	N	0.06509	0.032714	0.329979
202	C	0.390806	0.192854	0.337028
203	N	0.408615	0.17609	0.341124
204	C	0.443231	0.193429	0.339773
205	N	0.459875	0.22786	0.335348
206	C	0.442674	0.245121	0.331913
207	N	0.408048	0.227467	0.332033
208	N	0.35714	0.174277	0.337742
209	N	0.460774	0.27839	0.325983
210	N	0.46138	0.177982	0.343215
211	C	0.802082	0.198147	0.337175
212	N	0.818863	0.232716	0.341347
213	C	0.801539	0.25001	0.340033
214	N	0.767114	0.232244	0.335558
215	C	0.749834	0.197786	0.332068
216	N	0.767474	0.1808	0.332128
217	N	0.820645	0.183042	0.337875
218	N	0.716576	0.18265	0.326002
219	N	0.816982	0.283602	0.343488
220	C	0.796744	0.604042	0.337115
221	N	0.762174	0.586209	0.341294
222	C	0.744926	0.551591	0.340013
223	N	0.76274	0.534976	0.335571
224	C	0.797197	0.552196	0.332072
225	N	0.814133	0.586819	0.332092
226	N	0.811813	0.637705	0.337772
227	N	0.812374	0.534114	0.326028
228	N	0.711335	0.533389	0.343485
229	C	0.299693	0.158797	0.666286
230	C	0.276021	0.163894	0.641693
231	N	0.242322	0.140486	0.643337
232	C	0.228664	0.111214	0.6677
233	C	0.251101	0.104752	0.36035
234	C	0.286496	0.128814	0.359093
235	H	0.302714	0.124188	0.377716
236	C	0.192592	0.08935	0.666633
237	C	0.17238	0.08284	0.627619
238	C	0.136593	0.060977	0.631061
239	C	0.121115	0.04579	0.338739
240	C	0.142431	0.053023	0.376209
241	N	0.17651	0.074213	0.37209
242	H	0.121879	0.055628	0.603
243	H	0.132723	0.042693	0.406765
244	H	0.28373	0.185015	0.62214
245	N	0.187953	0.09671	0.586014
246	N	0.238382	0.074402	0.3857
247	O	0.177229	0.115198	0.569743
248	O	0.244725	0.080787	0.426502
249	O	0.250739	0.056398	0.372894
250	O	0.182725	0.07368	0.558427
251	C	0.086498	0.023452	0.342051
252	C	0.334257	0.182756	0.664642
253	H	0.078478	0.00053	0.355385
254	H	0.341362	0.206846	0.657151
255	C	0.836117	0.141074	0.666333
256	C	0.831014	0.112311	0.641727
257	N	0.854412	0.102006	0.643361
258	C	0.883683	0.117606	0.66773
259	C	0.89016	0.14651	0.360377
260	C	0.866106	0.157855	0.35913
261	H	0.870742	0.178695	0.37776
262	C	0.905542	0.103394	0.666653
263	C	0.912048	0.089687	0.627643
264	C	0.933908	0.07576	0.631084
265	C	0.94909	0.075463	0.338766
266	C	0.941857	0.089545	0.376235
267	N	0.920675	0.102442	0.372113
268	H	0.939244	0.066379	0.60303
269	H	0.952183	0.090163	0.406791
270	H	0.809887	0.0989	0.62218
271	N	0.898172	0.091385	0.586041
272	N	0.920521	0.164141	0.38571
273	O	0.879677	0.062171	0.569776
274	O	0.914151	0.16411	0.426515
275	O	0.938527	0.194499	0.37289
276	O	0.921198	0.109181	0.558443
277	C	0.971413	0.063167	0.342091
278	C	0.812161	0.151687	0.664719
279	H	0.994359	0.078089	0.355351
280	H	0.788075	0.134719	0.657141
281	C	0.85377	0.695158	0.666233
282	C	0.882543	0.718825	0.64164
283	N	0.892847	0.752527	0.643287
284	C	0.877244	0.766194	0.66766
285	C	0.848341	0.743762	0.360307
286	C	0.836992	0.708363	0.35904
287	H	0.816148	0.692152	0.377666
288	C	0.891461	0.802267	0.666593
289	C	0.905176	0.822483	0.627586
290	C	0.919097	0.858267	0.631031
291	C	0.919403	0.873746	0.338713
292	C	0.905316	0.852428	0.376179
293	N	0.892411	0.818348	0.372053
294	H	0.928494	0.872986	0.60298
295	H	0.904697	0.862136	0.406735
296	H	0.89595	0.711109	0.622086
297	N	0.903482	0.806912	0.585981
298	N	0.830715	0.75649	0.385654
299	O	0.932699	0.817634	0.569723
300	O	0.830747	0.75014	0.426451
301	O	0.800356	0.744143	0.372837
302	O	0.885688	0.812144	0.55838
303	C	0.931695	0.908365	0.342034
304	C	0.843162	0.660594	0.664602
305	H	0.916809	0.916394	0.355398
306	H	0.86015	0.653488	0.657108
307	C	0.661398	0.169418	0.344696
308	C	0.634363	0.150217	0.374528
309	N	0.603422	0.147394	0.367748
310	C	0.59572	0.161528	0.332758
311	C	0.621786	0.180647	0.634379
312	C	0.654384	0.184177	0.640913
313	H	0.673749	0.199778	0.619782
314	C	0.563507	0.160029	0.332284
315	C	0.548769	0.166086	0.370579
316	C	0.519843	0.170042	0.364706
317	C	0.505636	0.168027	0.655364
318	C	0.520321	0.160117	0.619085
319	N	0.548341	0.157149	0.625431
320	H	0.510823	0.177044	0.391627
321	H	0.512078	0.159401	0.587138
322	H	0.638116	0.140015	0.402919
323	N	0.564418	0.171005	0.412924
324	N	0.616249	0.198279	0.599261
325	O	0.544316	0.149721	0.440829
326	O	0.621149	0.189046	0.561785
327	O	0.635108	0.230066	0.60278
328	O	0.574689	0.200578	0.427662
329	C	0.483243	0.17997	0.647466
330	C	0.694685	0.179085	0.355968
331	H	0.486832	0.193619	0.619785
332	H	0.702466	0.187827	0.386778
333	C	0.825615	0.492176	0.344729
334	C	0.84479	0.48433	0.374591
335	N	0.847631	0.45622	0.367818
336	C	0.833543	0.434412	0.332792
337	C	0.814454	0.441366	0.634383
338	C	0.810879	0.470403	0.640936
339	H	0.795342	0.474216	0.619742
340	C	0.835027	0.403691	0.332332
341	C	0.82891	0.38288	0.370632
342	C	0.824961	0.349997	0.364783
343	C	0.827014	0.337818	0.655447
344	C	0.834986	0.360423	0.619175
345	N	0.83799	0.391425	0.625505
346	H	0.817936	0.333975	0.39171
347	H	0.835858	0.352925	0.587265
348	H	0.854959	0.49827	0.403006
349	N	0.823935	0.393597	0.412958
350	N	0.796885	0.418231	0.599201
351	O	0.845185	0.394773	0.440919
352	O	0.806165	0.432411	0.561762
353	O	0.765092	0.405278	0.602643
354	O	0.794344	0.374292	0.427632
355	C	0.81515	0.303486	0.647606
356	C	0.815919	0.515774	0.355992
357	H	0.801647	0.293428	0.619825
358	H	0.807125	0.514771	0.386784
359	C	0.50266	0.333495	0.344852
360	C	0.510394	0.360625	0.374464
361	N	0.538545	0.39154	0.367678
362	C	0.560529	0.399086	0.332896
363	C	0.553713	0.372921	0.634743
364	C	0.524623	0.34035	0.641316
365	H	0.520882	0.32092	0.620326
366	C	0.591242	0.431293	0.33237
367	C	0.611956	0.446126	0.370709
368	C	0.644856	0.475033	0.364863
369	C	0.657131	0.489111	0.655494
370	C	0.63463	0.474336	0.619152
371	N	0.603603	0.446369	0.625488
372	H	0.660791	0.484149	0.391864
373	H	0.642176	0.48261	0.587222
374	H	0.496243	0.356985	0.402636
375	N	0.601103	0.430583	0.413095
376	N	0.577021	0.378329	0.599862
377	O	0.599862	0.450764	0.440812
378	O	0.563037	0.373304	0.562265
379	O	0.58992	0.359471	0.603784
380	O	0.620363	0.420344	0.428096
381	C	0.691474	0.511557	0.64769
382	C	0.478869	0.30025	0.356108
383	H	0.70157	0.508142	0.619919
384	H	0.479803	0.292419	0.386891
385	C	0.978548	0.96348	0.664175
386	N	0.01316	0.980475	0.663945
387	C	0.03138	0.015187	0.664212
388	N	0.014382	0.032803	0.663992
389	C	0.979672	0.016312	0.664232
390	N	0.962057	0.981697	0.663968
391	N	0.96236	0.929767	0.663271
392	N	0.962144	0.032495	0.663361
393	N	0.06509	0.032714	0.663315
394	C	0.390806	0.192854	0.670361
395	N	0.408615	0.17609	0.674457
396	C	0.443231	0.193429	0.67311
397	N	0.459875	0.22786	0.668681
398	C	0.442674	0.245121	0.665246
399	N	0.408048	0.227467	0.665366
400	N	0.35714	0.174277	0.671075
401	N	0.460774	0.27839	0.659316
402	N	0.46138	0.177982	0.676548
403	C	0.802082	0.198147	0.670508
404	N	0.818863	0.232716	0.67468
405	C	0.801539	0.25001	0.673366
406	N	0.767114	0.232244	0.668891
407	C	0.749834	0.197786	0.665402
408	N	0.767474	0.1808	0.665462
409	N	0.820645	0.183042	0.671209
410	N	0.716576	0.18265	0.659336
411	N	0.816982	0.283602	0.676822
412	C	0.796744	0.604042	0.670448
413	N	0.762174	0.586209	0.674627
414	C	0.744926	0.551591	0.673346
415	N	0.76274	0.534976	0.668904
416	C	0.797197	0.552196	0.665406
417	N	0.814133	0.586819	0.665426
418	N	0.811813	0.637705	0.671105
419	N	0.812374	0.534114	0.659362
420	N	0.711335	0.533389	0.676818
421	C	0.299693	0.158797	0.999619
422	C	0.276021	0.163894	0.975026
423	N	0.242322	0.140486	0.976671
424	C	0.228664	0.111214	0.001033
425	C	0.251101	0.104752	0.693684
426	C	0.286496	0.128814	0.692426
427	H	0.302714	0.124188	0.711053
428	C	0.192592	0.08935	0.999966
429	C	0.17238	0.08284	0.960952
430	C	0.136593	0.060977	0.964394
431	C	0.121115	0.04579	0.672072
432	C	0.142431	0.053023	0.709542
433	N	0.17651	0.074213	0.705423
434	H	0.121879	0.055628	0.936336
435	H	0.132723	0.042693	0.740098
436	H	0.28373	0.185015	0.955473
437	N	0.187953	0.09671	0.919347
438	N	0.238382	0.074402	0.719033
439	O	0.177229	0.115198	0.903076
440	O	0.244725	0.080787	0.759835
441	O	0.250739	0.056398	0.706227
442	O	0.182725	0.07368	0.89176
443	C	0.086498	0.023452	0.675384
444	C	0.334257	0.182756	0.997975
445	H	0.078478	0.00053	0.688718
446	H	0.341362	0.206846	0.990484
447	C	0.836117	0.141074	0.999666
448	C	0.831014	0.112311	0.97506
449	N	0.854412	0.102006	0.976697
450	C	0.883683	0.117606	0.001063
451	C	0.89016	0.14651	0.693714
452	C	0.866106	0.157855	0.692463
453	H	0.870742	0.178695	0.711093
454	C	0.905542	0.103394	0.999989
455	C	0.912048	0.089687	0.960979
456	C	0.933908	0.07576	0.964418
457	C	0.94909	0.075463	0.672099
458	C	0.941857	0.089545	0.709569
459	N	0.920675	0.102442	0.70545
460	H	0.939244	0.066379	0.936363
461	H	0.952183	0.090163	0.740124
462	H	0.809887	0.0989	0.955513
463	N	0.898172	0.091385	0.919374
464	N	0.920521	0.164141	0.719043
465	O	0.879677	0.062171	0.903112
466	O	0.914151	0.16411	0.759848
467	O	0.938527	0.194499	0.706223
468	O	0.921198	0.109181	0.891776
469	C	0.971413	0.063167	0.675427
470	C	0.812161	0.151687	0.998055
471	H	0.994359	0.078089	0.688684
472	H	0.788075	0.134719	0.990478
473	C	0.85377	0.695158	0.999566
474	C	0.882543	0.718825	0.974976
475	N	0.892847	0.752527	0.976624
476	C	0.877244	0.766194	0.000993
477	C	0.848341	0.743762	0.69364
478	C	0.836992	0.708363	0.692376
479	H	0.816148	0.692152	0.710999
480	C	0.891461	0.802267	0.999926
481	C	0.905176	0.822483	0.960919
482	C	0.919097	0.858267	0.964364
483	C	0.919403	0.873746	0.672046
484	C	0.905316	0.852428	0.709515
485	N	0.892411	0.818348	0.70539
486	H	0.928494	0.872986	0.936313
487	H	0.904697	0.862136	0.740071
488	H	0.89595	0.711109	0.95542
489	N	0.903482	0.806912	0.919314
490	N	0.830715	0.75649	0.718987
491	O	0.932699	0.817634	0.903056
492	O	0.830747	0.75014	0.759785
493	O	0.800356	0.744143	0.70617
494	O	0.885688	0.812144	0.891716
495	C	0.931695	0.908365	0.675371
496	C	0.843162	0.660594	0.997935
497	H	0.916809	0.916394	0.688731
498	H	0.86015	0.653488	0.990441
499	C	0.661398	0.169418	0.678029
500	C	0.634363	0.150217	0.707861
501	N	0.603422	0.147394	0.701081
502	C	0.59572	0.161528	0.666093
503	C	0.621786	0.180647	0.967713
504	C	0.654384	0.184177	0.974246
505	H	0.673749	0.199778	0.953115
506	C	0.563507	0.160029	0.665616
507	C	0.548769	0.166086	0.703912
508	C	0.519843	0.170042	0.698039
509	C	0.505636	0.168027	0.988697
510	C	0.520321	0.160117	0.952418
511	N	0.548341	0.157149	0.958765
512	H	0.510823	0.177044	0.72496
513	H	0.512078	0.159401	0.920471
514	H	0.638116	0.140015	0.736252
515	N	0.564418	0.171005	0.746258
516	N	0.616249	0.198279	0.932594
517	O	0.544316	0.149721	0.774162
518	O	0.621149	0.189046	0.895118
519	O	0.635108	0.230066	0.936113
520	O	0.574689	0.200578	0.760995
521	C	0.483243	0.17997	0.980799
522	C	0.694685	0.179085	0.689301
523	H	0.486832	0.193619	0.953118
524	H	0.702466	0.187827	0.720111
525	C	0.825615	0.492176	0.678062
526	C	0.84479	0.48433	0.707928
527	N	0.847631	0.45622	0.701151
528	C	0.833543	0.434412	0.666126
529	C	0.814454	0.441366	0.967716
530	C	0.810879	0.470403	0.974269
531	H	0.795342	0.474216	0.953075
532	C	0.835027	0.403691	0.665666
533	C	0.82891	0.38288	0.703966
534	C	0.824961	0.349997	0.698116
535	C	0.827014	0.337818	0.98878
536	C	0.834986	0.360423	0.952508
537	N	0.83799	0.391425	0.958838
538	H	0.817936	0.333975	0.725043
539	H	0.835858	0.352925	0.920598
540	H	0.854959	0.49827	0.736339
541	N	0.823935	0.393597	0.746291
542	N	0.796885	0.418231	0.932538
543	O	0.845185	0.394773	0.774252
544	O	0.806165	0.432411	0.895095
545	O	0.765092	0.405278	0.935979
546	O	0.794344	0.374292	0.760969
547	C	0.81515	0.303486	0.980939
548	C	0.815919	0.515774	0.689325
549	H	0.801647	0.293428	0.953158
550	H	0.807125	0.514771	0.720117
551	C	0.50266	0.333495	0.678186
552	C	0.510394	0.360625	0.707798
553	N	0.538545	0.39154	0.701011
554	C	0.560529	0.399086	0.666229
555	C	0.553713	0.372921	0.968076
556	C	0.524623	0.34035	0.97465
557	H	0.520882	0.32092	0.953659
558	C	0.591242	0.431293	0.665702
559	C	0.611956	0.446126	0.704042
560	C	0.644856	0.475033	0.698196
561	C	0.657131	0.489111	0.98883
562	C	0.63463	0.474336	0.952488
563	N	0.603603	0.446369	0.958821
564	H	0.660791	0.484149	0.725197
565	H	0.642176	0.48261	0.920555
566	H	0.496243	0.356985	0.735969
567	N	0.601103	0.430583	0.746428
568	N	0.577021	0.378329	0.933195
569	O	0.599862	0.450764	0.774145
570	O	0.563037	0.373304	0.895598
571	O	0.58992	0.359471	0.937117
572	O	0.620363	0.420344	0.761429
573	C	0.691474	0.511557	0.981023
574	C	0.478869	0.30025	0.689441
575	H	0.70157	0.508142	0.953252
576	H	0.479803	0.292419	0.720224
