data_C252H252N72_2018-02-15_10:44:57
#******************************************
#
# CIF file created by Zeo++
# Zeo++ is an open source package to
# analyze microporous materials
#
#*******************************************

_cell_length_a		34.9902   
_cell_length_b		34.9902   
_cell_length_c		29.1454   
_cell_angle_alpha		90   
_cell_angle_beta		90   
_cell_angle_gamma		120   

_symmetry_space_group_name_H-M		'P1'
_symmetry_Int_Tables_number		1
_symmetry_cell_setting		Monoclinic

loop_
_symmetry_equiv_pos_as_xyz
'+x,+y,+z'

loop_
_atom_site_label
_atom_site_type_symbol
_atom_site_fract_x
_atom_site_fract_y
_atom_site_fract_z
1	C	0.062068	0.041912	0.016223
2	N	0.031816	0.055882	0.016328
3	C	0.98724	0.027501	0.016221
4	C	0.107411	0.073031	0.017134
5	C	0.956121	0.041725	0.017138
6	H	0.92451	0.018703	0.019986
7	H	0.115998	0.104642	0.019979
8	N	0.489294	0.253929	0.014806
9	C	0.465067	0.209156	0.014907
10	N	0.419957	0.19008	0.015617
11	C	0.399583	0.214922	0.016516
12	C	0.353721	0.19781	0.017851
13	H	0.343387	0.21948	0.021329
14	C	0.748946	0.198248	0.015638
15	N	0.775203	0.242687	0.014813
16	N	0.839059	0.237212	0.015624
17	C	0.814224	0.191995	0.016532
18	N	0.769293	0.173684	0.016482
19	C	0.831345	0.163252	0.017873
20	C	0.703326	0.179635	0.014883
21	H	0.684302	0.147028	0.014023
22	H	0.809678	0.131248	0.021359
23	C	0.278793	0.137951	0.015563
24	C	0.254787	0.118461	0.056716
25	C	0.207366	0.094895	0.056575
26	H	0.263074	0.149747	0.234022
27	H	0.192514	0.086982	0.238256
28	C	0.279242	0.122129	0.100327
29	H	0.315019	0.140604	0.097139
30	H	0.270504	0.089319	0.112603
31	H	0.27065	0.138808	0.126506
32	C	0.182821	0.074292	0.10021
33	H	0.147054	0.057409	0.097102
34	H	0.191737	0.099612	0.126403
35	H	0.191164	0.049922	0.112451
36	N	0.323634	0.156647	0.014735
37	C	0.891207	0.148191	0.015573
38	C	0.910697	0.143673	0.056725
39	C	0.934262	0.119817	0.056583
40	H	0.879409	0.120679	0.234031
41	H	0.942171	0.11288	0.238261
42	C	0.90703	0.164461	0.100337
43	H	0.888558	0.181766	0.09715
44	H	0.939843	0.188532	0.112613
45	H	0.890351	0.139191	0.126515
46	C	0.954865	0.115874	0.100217
47	H	0.971747	0.096989	0.097107
48	H	0.929545	0.099471	0.12641
49	H	0.979235	0.148587	0.112458
50	N	0.87251	0.174334	0.014746
51	C	0.577499	0.185859	0.054171
52	C	0.618378	0.185707	0.054
53	C	0.637346	0.177018	0.096311
54	H	0.617431	0.169919	0.127102
55	H	0.669425	0.205693	0.104005
56	H	0.64166	0.148619	0.090469
57	C	0.551776	0.177036	0.097808
58	H	0.521156	0.177677	0.09453
59	H	0.571709	0.201783	0.123437
60	H	0.542826	0.144326	0.110655
61	H	0.636361	0.19502	0.234507
62	H	0.568845	0.195529	0.234563
63	N	0.530268	0.206605	0.014971
64	C	0.183528	0.090428	0.015241
65	N	0.138835	0.063732	0.014555
66	C	0.938726	0.100447	0.015247
67	N	0.965423	0.082449	0.014558
68	C	0.471121	0.280195	0.015622
69	N	0.42621	0.259853	0.016462
70	C	0.819978	0.26324	0.014903
71	C	0.281947	0.154115	0.265106
72	H	0.303109	0.140094	0.258365
73	H	0.302682	0.189604	0.270194
74	C	0.183161	0.104034	0.263274
75	H	0.147411	0.084963	0.266156
76	H	0.191271	0.136315	0.249805
77	C	0.875041	0.135184	0.265116
78	H	0.889063	0.170367	0.258376
79	H	0.839554	0.120431	0.270204
80	C	0.92512	0.086477	0.26328
81	H	0.94419	0.069797	0.266161
82	H	0.892837	0.062306	0.249813
83	C	0.655499	0.217653	0.26202
84	H	0.685656	0.216017	0.265029
85	H	0.665229	0.251253	0.251668
86	C	0.572224	0.217995	0.262211
87	H	0.540399	0.216275	0.265155
88	H	0.596119	0.251661	0.252079
89	N	0.973268	0.983278	0.016329
90	C	0.001648	0.967081	0.016227
91	N	0.045873	0.997336	0.016328
92	C	0.987425	0.921738	0.017132
93	H	0.010448	0.913151	0.01997
94	C	0.49814	0.325813	0.014864
95	H	0.484564	0.344844	0.01401
96	C	0.830911	0.558038	0.015612
97	N	0.786471	0.539858	0.014796
98	C	0.765915	0.564074	0.014898
99	N	0.791941	0.609186	0.01561
100	C	0.83716	0.62957	0.01651
101	N	0.855471	0.602952	0.016454
102	C	0.865902	0.675434	0.017848
103	C	0.849521	0.53103	0.014856
104	H	0.882129	0.544613	0.014006
105	H	0.897908	0.685774	0.021326
106	C	0.880961	0.750359	0.01556
107	C	0.885479	0.774364	0.056715
108	C	0.909334	0.821782	0.056576
109	H	0.908465	0.766081	0.234017
110	H	0.916264	0.836643	0.238255
111	C	0.864693	0.749907	0.100326
112	H	0.847387	0.714128	0.097136
113	H	0.840623	0.758646	0.112605
114	H	0.889964	0.758494	0.126503
115	C	0.913279	0.846328	0.100213
116	H	0.932165	0.882094	0.097106
117	H	0.929684	0.837408	0.126403
118	H	0.880568	0.837986	0.112457
119	N	0.854818	0.705515	0.014732
120	C	0.84325	0.398961	0.054167
121	C	0.843409	0.439995	0.053989
122	C	0.852074	0.467642	0.096301
123	H	0.859153	0.454822	0.127101
124	H	0.823396	0.471051	0.103974
125	H	0.88048	0.500356	0.090475
126	C	0.852044	0.382049	0.097814
127	H	0.8514	0.350787	0.094541
128	H	0.827281	0.377234	0.123425
129	H	0.884745	0.405806	0.110681
130	H	0.834192	0.448693	0.234487
131	H	0.833667	0.380659	0.234556
132	N	0.82252	0.330987	0.014968
133	C	0.630211	0.451607	0.054171
134	C	0.589181	0.41073	0.053998
135	C	0.56154	0.391744	0.096315
136	H	0.574365	0.411644	0.127114
137	H	0.558139	0.359661	0.103984
138	H	0.528824	0.387431	0.090497
139	C	0.647127	0.477312	0.097817
140	H	0.678388	0.507933	0.09454
141	H	0.651952	0.457369	0.123423
142	H	0.623371	0.486255	0.110692
143	H	0.580464	0.392804	0.234496
144	H	0.648488	0.46032	0.234555
145	N	0.698175	0.498864	0.014957
146	C	0.928701	0.845622	0.015242
147	N	0.946701	0.890315	0.014558
148	C	0.893964	0.747208	0.265101
149	H	0.858781	0.726044	0.258363
150	H	0.908718	0.726473	0.270184
151	C	0.942667	0.845992	0.263273
152	H	0.959347	0.881741	0.266157
153	H	0.966841	0.837883	0.249803
154	C	0.811546	0.445202	0.261984
155	H	0.813189	0.476998	0.264989
156	H	0.777951	0.421339	0.251612
157	C	0.811182	0.361572	0.262191
158	H	0.812892	0.331462	0.265143
159	H	0.777524	0.351813	0.252036
160	C	0.583964	0.373653	0.261993
161	H	0.552174	0.343494	0.265003
162	H	0.607832	0.363928	0.251618
163	C	0.667582	0.45693	0.262187
164	H	0.697691	0.488756	0.265134
165	H	0.677351	0.433038	0.252032
166	C	0.48766	0.185767	0.013351
167	H	0.471041	0.153193	0.009899
168	C	0.183528	0.090428	0.348573
169	C	0.207588	0.109683	0.307284
170	C	0.255038	0.133561	0.307529
171	N	0.138835	0.063732	0.347887
172	C	0.938726	0.100447	0.34858
173	C	0.919474	0.105256	0.30729
174	C	0.895598	0.128827	0.307538
175	N	0.965423	0.082449	0.34789
176	C	0.562239	0.196075	0.013111
177	C	0.64362	0.19582	0.346151
178	C	0.628326	0.205889	0.30511
179	C	0.58748	0.206003	0.305258
180	N	0.685514	0.204211	0.347602
181	C	0.062068	0.041912	0.349554
182	N	0.031816	0.055882	0.349661
183	C	0.98724	0.027501	0.349554
184	C	0.107411	0.073031	0.350467
185	C	0.956121	0.041725	0.350471
186	H	0.92451	0.018703	0.353318
187	H	0.115998	0.104642	0.353311
188	N	0.489294	0.253929	0.348141
189	C	0.465067	0.209156	0.34824
190	N	0.419957	0.19008	0.348951
191	C	0.399583	0.214922	0.34985
192	C	0.353721	0.19781	0.351184
193	C	0.48766	0.185767	0.346686
194	H	0.471041	0.153193	0.343234
195	H	0.343387	0.21948	0.354663
196	C	0.748946	0.198248	0.348971
197	N	0.775203	0.242687	0.348148
198	N	0.839059	0.237212	0.348957
199	C	0.814224	0.191995	0.349867
200	N	0.769293	0.173684	0.349815
201	C	0.831345	0.163252	0.351208
202	C	0.703326	0.179635	0.348216
203	H	0.684302	0.147028	0.347355
204	H	0.809678	0.131248	0.354694
205	C	0.183528	0.090428	0.681909
206	C	0.207588	0.109683	0.640616
207	C	0.255038	0.133561	0.640863
208	C	0.278793	0.137951	0.348896
209	C	0.254787	0.118461	0.390048
210	C	0.207366	0.094895	0.389907
211	C	0.281947	0.154115	0.598438
212	H	0.263074	0.149747	0.567356
213	H	0.303109	0.140094	0.591699
214	H	0.302682	0.189604	0.603526
215	C	0.183161	0.104034	0.596606
216	H	0.147411	0.084963	0.599491
217	H	0.192514	0.086982	0.57159
218	H	0.191271	0.136315	0.583139
219	C	0.279242	0.122129	0.43366
220	H	0.315019	0.140604	0.430473
221	H	0.270504	0.089319	0.445937
222	H	0.27065	0.138808	0.459839
223	C	0.182821	0.074292	0.433544
224	H	0.147054	0.057409	0.430435
225	H	0.191737	0.099612	0.459737
226	H	0.191164	0.049922	0.445782
227	N	0.138835	0.063732	0.681219
228	N	0.323634	0.156647	0.348069
229	C	0.938726	0.100447	0.681912
230	C	0.919474	0.105256	0.640623
231	C	0.895598	0.128827	0.64087
232	C	0.891207	0.148191	0.348906
233	C	0.910697	0.143673	0.390058
234	C	0.934262	0.119817	0.389914
235	C	0.875041	0.135184	0.598448
236	H	0.879409	0.120679	0.567366
237	H	0.889063	0.170367	0.591709
238	H	0.839554	0.120431	0.603536
239	C	0.92512	0.086477	0.596612
240	H	0.94419	0.069797	0.599495
241	H	0.942171	0.11288	0.571593
242	H	0.892837	0.062306	0.583145
243	C	0.90703	0.164461	0.433671
244	H	0.888558	0.181766	0.430483
245	H	0.939843	0.188532	0.445947
246	H	0.890351	0.139191	0.45985
247	C	0.954865	0.115874	0.433551
248	H	0.971747	0.096989	0.430439
249	H	0.929545	0.099471	0.459743
250	H	0.979235	0.148587	0.445789
251	N	0.965423	0.082449	0.681226
252	N	0.87251	0.174334	0.348079
253	C	0.562239	0.196075	0.346446
254	C	0.577499	0.185859	0.387506
255	C	0.618378	0.185707	0.387334
256	C	0.64362	0.19582	0.679483
257	C	0.628326	0.205889	0.638444
258	C	0.58748	0.206003	0.638592
259	C	0.637346	0.177018	0.429643
260	H	0.617431	0.169919	0.460437
261	H	0.669425	0.205693	0.437339
262	H	0.64166	0.148619	0.423803
263	C	0.551776	0.177036	0.431142
264	H	0.521156	0.177677	0.427862
265	H	0.571709	0.201783	0.456769
266	H	0.542826	0.144326	0.443988
267	C	0.655499	0.217653	0.595353
268	H	0.685656	0.216017	0.598362
269	H	0.665229	0.251253	0.585002
270	H	0.636361	0.19502	0.567839
271	C	0.572224	0.217995	0.595545
272	H	0.540399	0.216275	0.598489
273	H	0.568845	0.195529	0.567898
274	H	0.596119	0.251661	0.585413
275	N	0.530268	0.206605	0.348306
276	N	0.685514	0.204211	0.680935
277	C	0.062068	0.041912	0.68289
278	N	0.031816	0.055882	0.682993
279	C	0.98724	0.027501	0.682887
280	C	0.107411	0.073031	0.683799
281	C	0.956121	0.041725	0.683806
282	H	0.92451	0.018703	0.686651
283	H	0.115998	0.104642	0.686644
284	N	0.489294	0.253929	0.681473
285	C	0.465067	0.209156	0.681573
286	N	0.419957	0.19008	0.682283
287	C	0.399583	0.214922	0.683182
288	C	0.353721	0.19781	0.684517
289	C	0.48766	0.185767	0.680018
290	H	0.471041	0.153193	0.676567
291	H	0.343387	0.21948	0.687996
292	C	0.748946	0.198248	0.682304
293	N	0.775203	0.242687	0.68148
294	N	0.839059	0.237212	0.68229
295	C	0.814224	0.191995	0.683199
296	N	0.769293	0.173684	0.683148
297	C	0.831345	0.163252	0.684541
298	C	0.703326	0.179635	0.681549
299	H	0.684302	0.147028	0.680691
300	H	0.809678	0.131248	0.688027
301	C	0.207588	0.109683	0.973952
302	C	0.255038	0.133561	0.974195
303	C	0.278793	0.137951	0.682228
304	C	0.254787	0.118461	0.723384
305	C	0.207366	0.094895	0.723243
306	C	0.281947	0.154115	0.931774
307	H	0.263074	0.149747	0.900688
308	H	0.303109	0.140094	0.925031
309	H	0.302682	0.189604	0.936862
310	C	0.183161	0.104034	0.929941
311	H	0.147411	0.084963	0.932823
312	H	0.192514	0.086982	0.904922
313	H	0.191271	0.136315	0.916471
314	C	0.279242	0.122129	0.766993
315	H	0.315019	0.140604	0.763805
316	H	0.270504	0.089319	0.779269
317	H	0.27065	0.138808	0.793172
318	C	0.182821	0.074292	0.766876
319	H	0.147054	0.057409	0.763768
320	H	0.191737	0.099612	0.793069
321	H	0.191164	0.049922	0.779118
322	N	0.323634	0.156647	0.681401
323	C	0.919474	0.105256	0.973955
324	C	0.895598	0.128827	0.974206
325	C	0.891207	0.148191	0.682238
326	C	0.910697	0.143673	0.723391
327	C	0.934262	0.119817	0.72325
328	C	0.875041	0.135184	0.931784
329	H	0.879409	0.120679	0.900698
330	H	0.889063	0.170367	0.925042
331	H	0.839554	0.120431	0.936872
332	C	0.92512	0.086477	0.929945
333	H	0.94419	0.069797	0.932827
334	H	0.942171	0.11288	0.904929
335	H	0.892837	0.062306	0.916478
336	C	0.90703	0.164461	0.767003
337	H	0.888558	0.181766	0.763816
338	H	0.939843	0.188532	0.779279
339	H	0.890351	0.139191	0.793182
340	C	0.954865	0.115874	0.766883
341	H	0.971747	0.096989	0.763774
342	H	0.929545	0.099471	0.793076
343	H	0.979235	0.148587	0.779125
344	N	0.87251	0.174334	0.681411
345	C	0.562239	0.196075	0.679778
346	C	0.577499	0.185859	0.720838
347	C	0.618378	0.185707	0.720666
348	C	0.64362	0.19582	0.012816
349	C	0.628326	0.205889	0.971776
350	C	0.58748	0.206003	0.971924
351	C	0.637346	0.177018	0.762978
352	H	0.617431	0.169919	0.793769
353	H	0.669425	0.205693	0.770671
354	H	0.64166	0.148619	0.757135
355	C	0.551776	0.177036	0.764474
356	H	0.521156	0.177677	0.761198
357	H	0.571709	0.201783	0.790104
358	H	0.542826	0.144326	0.77732
359	C	0.655499	0.217653	0.928686
360	H	0.685656	0.216017	0.931695
361	H	0.665229	0.251253	0.918334
362	H	0.636361	0.19502	0.901175
363	C	0.572224	0.217995	0.928878
364	H	0.540399	0.216275	0.931822
365	H	0.568845	0.195529	0.90123
366	H	0.596119	0.251661	0.918746
367	N	0.530268	0.206605	0.681638
368	N	0.685514	0.204211	0.014267
369	C	0.471121	0.280195	0.348954
370	N	0.42621	0.259853	0.349795
371	C	0.819978	0.26324	0.348237
372	C	0.471121	0.280195	0.682286
373	N	0.42621	0.259853	0.683127
374	C	0.819978	0.26324	0.681569
375	C	0.843363	0.30922	0.013358
376	H	0.875934	0.325182	0.009896
377	C	0.719933	0.541472	0.013347
378	H	0.703968	0.558081	0.009906
379	C	0.928701	0.845622	0.348577
380	C	0.923892	0.821565	0.307282
381	C	0.90032	0.774113	0.307526
382	N	0.946701	0.890315	0.34789
383	C	0.833055	0.373492	0.013104
384	C	0.833326	0.455135	0.346127
385	C	0.823279	0.429777	0.305085
386	C	0.823154	0.388814	0.305241
387	N	0.824942	0.488644	0.347571
388	C	0.655673	0.466887	0.013104
389	C	0.574033	0.385504	0.346137
390	C	0.599387	0.400813	0.305092
391	C	0.640348	0.441661	0.305242
392	N	0.540524	0.343613	0.347585
393	N	0.973268	0.983278	0.349661
394	C	0.001648	0.967081	0.349561
395	N	0.045873	0.997336	0.349661
396	C	0.987425	0.921738	0.350467
397	H	0.010448	0.913151	0.353305
398	C	0.49814	0.325813	0.348196
399	H	0.484564	0.344844	0.347345
400	C	0.843363	0.30922	0.346693
401	H	0.875934	0.325182	0.343231
402	C	0.830911	0.558038	0.348944
403	N	0.786471	0.539858	0.348131
404	C	0.765915	0.564074	0.34823
405	N	0.791941	0.609186	0.348944
406	C	0.83716	0.62957	0.349843
407	N	0.855471	0.602952	0.349788
408	C	0.865902	0.675434	0.351181
409	C	0.849521	0.53103	0.348189
410	C	0.719933	0.541472	0.346679
411	H	0.703968	0.558081	0.343241
412	H	0.882129	0.544613	0.347341
413	H	0.897908	0.685774	0.35466
414	C	0.928701	0.845622	0.681909
415	C	0.923892	0.821565	0.640616
416	C	0.90032	0.774113	0.64086
417	C	0.880961	0.750359	0.348892
418	C	0.885479	0.774364	0.390048
419	C	0.909334	0.821782	0.389911
420	C	0.893964	0.747208	0.598434
421	H	0.908465	0.766081	0.567349
422	H	0.858781	0.726044	0.591696
423	H	0.908718	0.726473	0.603519
424	C	0.942667	0.845992	0.596606
425	H	0.959347	0.881741	0.599491
426	H	0.916264	0.836643	0.57159
427	H	0.966841	0.837883	0.583135
428	C	0.864693	0.749907	0.43366
429	H	0.847387	0.714128	0.430469
430	H	0.840623	0.758646	0.445937
431	H	0.889964	0.758494	0.459836
432	C	0.913279	0.846328	0.433547
433	H	0.932165	0.882094	0.430439
434	H	0.929684	0.837408	0.459737
435	H	0.880568	0.837986	0.445789
436	N	0.946701	0.890315	0.681226
437	N	0.854818	0.705515	0.348065
438	C	0.833055	0.373492	0.346439
439	C	0.84325	0.398961	0.387499
440	C	0.843409	0.439995	0.387324
441	C	0.833326	0.455135	0.679463
442	C	0.823279	0.429777	0.63842
443	C	0.823154	0.388814	0.638574
444	C	0.852074	0.467642	0.429636
445	H	0.859153	0.454822	0.460433
446	H	0.823396	0.471051	0.437308
447	H	0.88048	0.500356	0.42381
448	C	0.852044	0.382049	0.431145
449	H	0.8514	0.350787	0.427876
450	H	0.827281	0.377234	0.456758
451	H	0.884745	0.405806	0.444015
452	C	0.811546	0.445202	0.595315
453	H	0.813189	0.476998	0.598321
454	H	0.777951	0.421339	0.584943
455	H	0.834192	0.448693	0.567819
456	C	0.811182	0.361572	0.595525
457	H	0.812892	0.331462	0.598475
458	H	0.833667	0.380659	0.567887
459	H	0.777524	0.351813	0.585369
460	N	0.82252	0.330987	0.348302
461	N	0.824942	0.488644	0.680904
462	C	0.655673	0.466887	0.346436
463	C	0.630211	0.451607	0.387506
464	C	0.589181	0.41073	0.387331
465	C	0.574033	0.385504	0.679473
466	C	0.599387	0.400813	0.638424
467	C	0.640348	0.441661	0.638574
468	C	0.56154	0.391744	0.429649
469	H	0.574365	0.411644	0.460447
470	H	0.558139	0.359661	0.437318
471	H	0.528824	0.387431	0.42383
472	C	0.647127	0.477312	0.431149
473	H	0.678388	0.507933	0.427872
474	H	0.651952	0.457369	0.456755
475	H	0.623371	0.486255	0.444026
476	C	0.583964	0.373653	0.595326
477	H	0.552174	0.343494	0.598335
478	H	0.607832	0.363928	0.58495
479	H	0.580464	0.392804	0.567829
480	C	0.667582	0.45693	0.595521
481	H	0.697691	0.488756	0.598469
482	H	0.648488	0.46032	0.567887
483	H	0.677351	0.433038	0.585365
484	N	0.698175	0.498864	0.348292
485	N	0.540524	0.343613	0.680917
486	N	0.973268	0.983278	0.682997
487	C	0.001648	0.967081	0.682894
488	N	0.045873	0.997336	0.682993
489	C	0.987425	0.921738	0.683799
490	H	0.010448	0.913151	0.686637
491	C	0.49814	0.325813	0.681532
492	H	0.484564	0.344844	0.680677
493	C	0.843363	0.30922	0.680025
494	H	0.875934	0.325182	0.676563
495	C	0.830911	0.558038	0.682279
496	N	0.786471	0.539858	0.681463
497	C	0.765915	0.564074	0.681562
498	N	0.791941	0.609186	0.682276
499	C	0.83716	0.62957	0.683175
500	N	0.855471	0.602952	0.68312
501	C	0.865902	0.675434	0.684513
502	C	0.849521	0.53103	0.681521
503	C	0.719933	0.541472	0.680012
504	H	0.703968	0.558081	0.676574
505	H	0.882129	0.544613	0.680674
506	H	0.897908	0.685774	0.687992
507	C	0.923892	0.821565	0.973948
508	C	0.90032	0.774113	0.974192
509	C	0.880961	0.750359	0.682228
510	C	0.885479	0.774364	0.72338
511	C	0.909334	0.821782	0.723243
512	C	0.893964	0.747208	0.931767
513	H	0.908465	0.766081	0.900685
514	H	0.858781	0.726044	0.925031
515	H	0.908718	0.726473	0.936852
516	C	0.942667	0.845992	0.929938
517	H	0.959347	0.881741	0.932823
518	H	0.916264	0.836643	0.904922
519	H	0.966841	0.837883	0.916471
520	C	0.864693	0.749907	0.766993
521	H	0.847387	0.714128	0.763802
522	H	0.840623	0.758646	0.779273
523	H	0.889964	0.758494	0.793168
524	C	0.913279	0.846328	0.76688
525	H	0.932165	0.882094	0.763771
526	H	0.929684	0.837408	0.793069
527	H	0.880568	0.837986	0.779122
528	N	0.854818	0.705515	0.681398
529	C	0.833055	0.373492	0.679771
530	C	0.84325	0.398961	0.720834
531	C	0.843409	0.439995	0.720656
532	C	0.833326	0.455135	0.012795
533	C	0.823279	0.429777	0.971752
534	C	0.823154	0.388814	0.971907
535	C	0.852074	0.467642	0.762968
536	H	0.859153	0.454822	0.793769
537	H	0.823396	0.471051	0.77064
538	H	0.88048	0.500356	0.757142
539	C	0.852044	0.382049	0.764481
540	H	0.8514	0.350787	0.761208
541	H	0.827281	0.377234	0.790091
542	H	0.884745	0.405806	0.777348
543	C	0.811546	0.445202	0.928651
544	H	0.813189	0.476998	0.931657
545	H	0.777951	0.421339	0.918279
546	H	0.834192	0.448693	0.901155
547	C	0.811182	0.361572	0.928857
548	H	0.812892	0.331462	0.931808
549	H	0.833667	0.380659	0.901223
550	H	0.777524	0.351813	0.918701
551	N	0.82252	0.330987	0.681634
552	N	0.824942	0.488644	0.014239
553	C	0.655673	0.466887	0.679771
554	C	0.630211	0.451607	0.720838
555	C	0.589181	0.41073	0.720663
556	C	0.574033	0.385504	0.012805
557	C	0.599387	0.400813	0.971759
558	C	0.640348	0.441661	0.971907
559	C	0.56154	0.391744	0.762982
560	H	0.574365	0.411644	0.793779
561	H	0.558139	0.359661	0.77065
562	H	0.528824	0.387431	0.757163
563	C	0.647127	0.477312	0.764485
564	H	0.678388	0.507933	0.761208
565	H	0.651952	0.457369	0.790091
566	H	0.623371	0.486255	0.777358
567	C	0.583964	0.373653	0.928658
568	H	0.552174	0.343494	0.931671
569	H	0.607832	0.363928	0.918286
570	H	0.580464	0.392804	0.901161
571	C	0.667582	0.45693	0.928854
572	H	0.697691	0.488756	0.931801
573	H	0.648488	0.46032	0.90122
574	H	0.677351	0.433038	0.918698
575	N	0.698175	0.498864	0.681624
576	N	0.540524	0.343613	0.01425
