data_C360H144N144_2018-02-15_10:38:28
#******************************************
#
# CIF file created by Zeo++
# Zeo++ is an open source package to
# analyze microporous materials
#
#*******************************************

_cell_length_a		28.848   
_cell_length_b		28.848   
_cell_length_c		29.444   
_cell_angle_alpha		90   
_cell_angle_beta		90   
_cell_angle_gamma		120   

_symmetry_space_group_name_H-M		'P1'
_symmetry_Int_Tables_number		1
_symmetry_cell_setting		Monoclinic

loop_
_symmetry_equiv_pos_as_xyz
'+x,+y,+z'

loop_
_atom_site_label
_atom_site_type_symbol
_atom_site_fract_x
_atom_site_fract_y
_atom_site_fract_z
1	N	0.153758	0.369848	0.009974
2	C	0.126073	0.315401	0.009008
3	N	0.15376	0.288638	0.009966
4	C	0.042825	0.273774	0.0563
5	C	0.07016	0.287432	0.013958
6	N	0.040335	0.272524	0.30877
7	C	0.070403	0.287561	0.098394
8	C	0.042241	0.273481	0.139686
9	H	0.111316	0.308014	0.099603
10	H	0.062658	0.283687	0.169798
11	N	0.153758	0.369848	0.343306
12	C	0.126073	0.315401	0.342342
13	N	0.15376	0.288638	0.343299
14	C	0.042825	0.273774	0.389631
15	C	0.07016	0.287432	0.34729
16	N	0.040335	0.272524	0.642104
17	C	0.070403	0.287561	0.431728
18	C	0.042241	0.273481	0.47302
19	H	0.111316	0.308014	0.432937
20	H	0.062658	0.283687	0.503132
21	N	0.153758	0.369848	0.676641
22	C	0.126073	0.315401	0.675673
23	N	0.15376	0.288638	0.676631
24	C	0.042825	0.273774	0.722966
25	C	0.07016	0.287432	0.680625
26	N	0.040335	0.272524	0.975436
27	C	0.070403	0.287561	0.76506
28	C	0.042241	0.273481	0.806352
29	H	0.111316	0.308014	0.766269
30	H	0.062658	0.283687	0.836463
31	N	0.153758	0.869848	0.009974
32	C	0.126074	0.815403	0.009008
33	N	0.153759	0.788637	0.009966
34	C	0.042825	0.773775	0.0563
35	C	0.07016	0.787432	0.013958
36	N	0.040335	0.772526	0.30877
37	C	0.070402	0.78756	0.098394
38	C	0.042242	0.773483	0.139686
39	H	0.111316	0.808014	0.099603
40	H	0.062657	0.783686	0.169798
41	N	0.153758	0.869848	0.343306
42	C	0.126074	0.815403	0.342342
43	N	0.153759	0.788637	0.343299
44	C	0.042825	0.773775	0.389631
45	C	0.07016	0.787432	0.34729
46	N	0.040335	0.772526	0.642104
47	C	0.070402	0.78756	0.431728
48	C	0.042242	0.773483	0.47302
49	H	0.111316	0.808014	0.432937
50	H	0.062657	0.783686	0.503132
51	N	0.153758	0.869848	0.676641
52	C	0.126074	0.815403	0.675673
53	N	0.153759	0.788637	0.676631
54	C	0.042825	0.773775	0.722966
55	C	0.07016	0.787432	0.680625
56	N	0.040335	0.772526	0.975436
57	C	0.070402	0.78756	0.76506
58	C	0.042242	0.773483	0.806352
59	H	0.111316	0.808014	0.766269
60	H	0.062657	0.783686	0.836463
61	C	0.208202	0.397525	0.009015
62	C	0.208209	0.315396	0.009004
63	N	0.234974	0.369847	0.009972
64	C	0.320121	0.121357	0.009015
65	N	0.374568	0.149031	0.009972
66	C	0.402246	0.203477	0.009015
67	N	0.374577	0.230258	0.00998
68	C	0.320131	0.203481	0.009025
69	N	0.293346	0.149032	0.009979
70	C	0.292161	0.231431	0.013967
71	C	0.278496	0.24511	0.056306
72	C	0.249837	0.273775	0.0563
73	C	0.236176	0.287449	0.013958
74	N	0.251085	0.272527	0.308773
75	N	0.277256	0.246346	0.308778
76	C	0.236046	0.287565	0.098394
77	C	0.250123	0.273484	0.139687
78	C	0.278197	0.245409	0.139692
79	C	0.29228	0.231324	0.098403
80	H	0.215591	0.308024	0.099601
81	H	0.239914	0.283693	0.169798
82	H	0.288402	0.235202	0.169806
83	H	0.312735	0.210865	0.099617
84	C	0.29214	0.065441	0.013961
85	C	0.278488	0.038104	0.056303
86	C	0.249838	0.480781	0.056304
87	C	0.236186	0.453443	0.013963
88	N	0.251081	0.483263	0.308775
89	N	0.277242	0.035615	0.308774
90	C	0.236052	0.453206	0.0984
91	C	0.250129	0.481369	0.139691
92	C	0.278199	0.037519	0.13969
93	C	0.292275	0.065681	0.098398
94	H	0.215602	0.412291	0.099611
95	H	0.239925	0.460956	0.169803
96	H	0.288405	0.057934	0.169801
97	H	0.312724	0.106594	0.099607
98	C	0.458162	0.231458	0.013961
99	C	0.485502	0.245117	0.056301
100	N	0.487983	0.246357	0.308772
101	C	0.486091	0.245407	0.139688
102	C	0.457927	0.231328	0.098398
103	H	0.465679	0.2352	0.169801
104	H	0.417014	0.210875	0.09961
105	C	0.208202	0.397525	0.342348
106	C	0.208209	0.315396	0.342338
107	N	0.234974	0.369847	0.343306
108	C	0.320121	0.121357	0.342348
109	N	0.374568	0.149031	0.343306
110	C	0.402246	0.203477	0.342348
111	N	0.374577	0.230258	0.343313
112	C	0.320131	0.203481	0.342359
113	N	0.293346	0.149032	0.343313
114	C	0.292161	0.231431	0.3473
115	C	0.278496	0.24511	0.389638
116	C	0.249837	0.273775	0.389635
117	C	0.236176	0.287449	0.34729
118	N	0.251085	0.272527	0.642108
119	N	0.277256	0.246346	0.642111
120	C	0.236046	0.287565	0.431725
121	C	0.250123	0.273484	0.47302
122	C	0.278197	0.245409	0.473024
123	C	0.29228	0.231324	0.431735
124	H	0.215591	0.308024	0.432934
125	H	0.239914	0.283693	0.503132
126	H	0.288402	0.235202	0.503139
127	H	0.312735	0.210865	0.432951
128	C	0.29214	0.065441	0.347293
129	C	0.278488	0.038104	0.389635
130	C	0.249838	0.480781	0.389638
131	C	0.236186	0.453443	0.347297
132	N	0.251081	0.483263	0.642108
133	N	0.277242	0.035615	0.642108
134	C	0.236052	0.453206	0.431732
135	C	0.250129	0.481369	0.473024
136	C	0.278199	0.037519	0.473024
137	C	0.292275	0.065681	0.431732
138	H	0.215602	0.412291	0.432944
139	H	0.239925	0.460956	0.503135
140	H	0.288405	0.057934	0.503135
141	H	0.312724	0.106594	0.432941
142	C	0.458162	0.231458	0.347293
143	C	0.485502	0.245117	0.389635
144	N	0.487983	0.246357	0.642104
145	C	0.486091	0.245407	0.47302
146	C	0.457927	0.231328	0.431732
147	H	0.465679	0.2352	0.503135
148	H	0.417014	0.210875	0.432941
149	C	0.208202	0.397525	0.675683
150	C	0.208209	0.315396	0.675673
151	N	0.234974	0.369847	0.676638
152	C	0.320121	0.121357	0.67568
153	N	0.374568	0.149031	0.676638
154	C	0.402246	0.203477	0.675683
155	N	0.374577	0.230258	0.676644
156	C	0.320131	0.203481	0.675693
157	N	0.293346	0.149032	0.676644
158	C	0.292161	0.231431	0.680635
159	C	0.278496	0.24511	0.722973
160	C	0.249837	0.273775	0.722966
161	C	0.236176	0.287449	0.680625
162	N	0.251085	0.272527	0.975439
163	N	0.277256	0.246346	0.975442
164	C	0.236046	0.287565	0.76506
165	C	0.250123	0.273484	0.806355
166	C	0.278197	0.245409	0.806358
167	C	0.29228	0.231324	0.76507
168	H	0.215591	0.308024	0.766265
169	H	0.239914	0.283693	0.836463
170	H	0.288402	0.235202	0.836473
171	H	0.312735	0.210865	0.766282
172	C	0.29214	0.065441	0.680628
173	C	0.278488	0.038104	0.72297
174	C	0.249838	0.480781	0.72297
175	C	0.236186	0.453443	0.680628
176	N	0.251081	0.483263	0.975442
177	N	0.277242	0.035615	0.975439
178	C	0.236052	0.453206	0.765067
179	C	0.250129	0.481369	0.806358
180	C	0.278199	0.037519	0.806355
181	C	0.292275	0.065681	0.765063
182	H	0.215602	0.412291	0.766276
183	H	0.239925	0.460956	0.83647
184	H	0.288405	0.057934	0.836467
185	H	0.312724	0.106594	0.766272
186	C	0.458162	0.231458	0.680628
187	C	0.485502	0.245117	0.722966
188	N	0.487983	0.246357	0.975439
189	C	0.486091	0.245407	0.806355
190	C	0.457927	0.231328	0.765063
191	H	0.465679	0.2352	0.836467
192	H	0.417014	0.210875	0.766276
193	C	0.208204	0.897527	0.009015
194	C	0.208208	0.815395	0.009004
195	N	0.234975	0.869848	0.009972
196	C	0.320121	0.621356	0.009015
197	N	0.374567	0.649031	0.009972
198	C	0.402246	0.703476	0.009015
199	N	0.374577	0.730258	0.00998
200	C	0.32013	0.70348	0.009025
201	N	0.293346	0.649031	0.009979
202	C	0.292161	0.731431	0.013967
203	C	0.278497	0.745112	0.056306
204	C	0.249837	0.773775	0.0563
205	C	0.236176	0.787448	0.013958
206	N	0.251085	0.772526	0.308773
207	N	0.277255	0.746345	0.308778
208	C	0.236045	0.787564	0.098394
209	C	0.250122	0.773483	0.139687
210	C	0.278197	0.745408	0.139692
211	C	0.29228	0.731322	0.098403
212	H	0.21559	0.808022	0.099601
213	H	0.239914	0.783694	0.169798
214	H	0.288401	0.735201	0.169806
215	H	0.312734	0.710865	0.099617
216	C	0.29214	0.565442	0.013962
217	C	0.278487	0.538104	0.056303
218	C	0.249837	0.980779	0.056304
219	C	0.236185	0.953441	0.013963
220	N	0.251082	0.983265	0.308775
221	N	0.277241	0.535614	0.308774
222	C	0.236051	0.953204	0.0984
223	C	0.250128	0.981367	0.139691
224	C	0.2782	0.537519	0.13969
225	C	0.292276	0.565682	0.098398
226	H	0.215603	0.912293	0.099611
227	H	0.239924	0.960954	0.169803
228	H	0.288404	0.557933	0.169801
229	H	0.312724	0.606594	0.099607
230	C	0.458162	0.731459	0.013961
231	C	0.485501	0.745116	0.056301
232	N	0.487984	0.746357	0.308772
233	C	0.486092	0.745408	0.139688
234	C	0.457926	0.731326	0.098398
235	H	0.465679	0.735201	0.169801
236	H	0.417015	0.710877	0.09961
237	C	0.208204	0.897527	0.342348
238	C	0.208208	0.815395	0.342338
239	N	0.234975	0.869848	0.343306
240	C	0.320121	0.621356	0.342348
241	N	0.374567	0.649031	0.343306
242	C	0.402246	0.703476	0.342348
243	N	0.374577	0.730258	0.343313
244	C	0.32013	0.70348	0.342359
245	N	0.293346	0.649031	0.343313
246	C	0.292161	0.731431	0.3473
247	C	0.278497	0.745112	0.389638
248	C	0.249837	0.773775	0.389635
249	C	0.236176	0.787448	0.34729
250	N	0.251085	0.772526	0.642108
251	N	0.277255	0.746345	0.642111
252	C	0.236045	0.787564	0.431725
253	C	0.250122	0.773483	0.47302
254	C	0.278197	0.745408	0.473024
255	C	0.29228	0.731322	0.431735
256	H	0.21559	0.808022	0.432934
257	H	0.239914	0.783694	0.503132
258	H	0.288401	0.735201	0.503139
259	H	0.312734	0.710865	0.432951
260	C	0.29214	0.565442	0.347293
261	C	0.278487	0.538104	0.389635
262	C	0.249837	0.980779	0.389638
263	C	0.236185	0.953441	0.347297
264	N	0.251082	0.983265	0.642108
265	N	0.277241	0.535614	0.642108
266	C	0.236051	0.953204	0.431732
267	C	0.250128	0.981367	0.473024
268	C	0.2782	0.537519	0.473024
269	C	0.292276	0.565682	0.431732
270	H	0.215603	0.912293	0.432944
271	H	0.239924	0.960954	0.503135
272	H	0.288404	0.557933	0.503135
273	H	0.312724	0.606594	0.432941
274	C	0.458162	0.731459	0.347293
275	C	0.485501	0.745116	0.389635
276	N	0.487984	0.746357	0.642104
277	C	0.486092	0.745408	0.47302
278	C	0.457926	0.731326	0.431732
279	H	0.465679	0.735201	0.503135
280	H	0.417015	0.710877	0.432941
281	C	0.208204	0.897527	0.675683
282	C	0.208208	0.815395	0.675673
283	N	0.234975	0.869848	0.676638
284	C	0.320121	0.621356	0.67568
285	N	0.374567	0.649031	0.676638
286	C	0.402246	0.703476	0.675683
287	N	0.374577	0.730258	0.676644
288	C	0.32013	0.70348	0.675693
289	N	0.293346	0.649031	0.676644
290	C	0.292161	0.731431	0.680635
291	C	0.278497	0.745112	0.722973
292	C	0.249837	0.773775	0.722966
293	C	0.236176	0.787448	0.680625
294	N	0.251085	0.772526	0.975439
295	N	0.277255	0.746345	0.975442
296	C	0.236045	0.787564	0.76506
297	C	0.250122	0.773483	0.806355
298	C	0.278197	0.745408	0.806358
299	C	0.29228	0.731322	0.76507
300	H	0.21559	0.808022	0.766265
301	H	0.239914	0.783694	0.836463
302	H	0.288401	0.735201	0.836473
303	H	0.312734	0.710865	0.766282
304	C	0.29214	0.565442	0.680628
305	C	0.278487	0.538104	0.72297
306	C	0.249837	0.980779	0.72297
307	C	0.236185	0.953441	0.680628
308	N	0.251082	0.983265	0.975442
309	N	0.277241	0.535614	0.975439
310	C	0.236051	0.953204	0.765067
311	C	0.250128	0.981367	0.806358
312	C	0.2782	0.537519	0.806355
313	C	0.292276	0.565682	0.765063
314	H	0.215603	0.912293	0.766276
315	H	0.239924	0.960954	0.83647
316	H	0.288404	0.557933	0.836467
317	H	0.312724	0.606594	0.766272
318	C	0.458162	0.731459	0.680628
319	C	0.485501	0.745116	0.722966
320	N	0.487984	0.746357	0.975439
321	C	0.486092	0.745408	0.806355
322	C	0.457926	0.731326	0.765063
323	H	0.465679	0.735201	0.836467
324	H	0.417015	0.710877	0.766276
325	C	0.708202	0.397525	0.009015
326	N	0.653757	0.369848	0.009974
327	C	0.626073	0.315401	0.009008
328	N	0.653762	0.288638	0.009966
329	C	0.708208	0.315396	0.009004
330	N	0.734975	0.369847	0.009972
331	C	0.820121	0.121357	0.009015
332	N	0.874568	0.149031	0.009972
333	C	0.902248	0.203477	0.009015
334	N	0.874578	0.230258	0.00998
335	C	0.82013	0.203481	0.009025
336	N	0.793346	0.149032	0.009979
337	C	0.792161	0.231431	0.013967
338	C	0.778496	0.24511	0.056306
339	C	0.749838	0.273775	0.0563
340	C	0.736178	0.287449	0.013958
341	N	0.751086	0.272527	0.308773
342	N	0.777257	0.246346	0.308778
343	C	0.736046	0.287565	0.098394
344	C	0.750123	0.273484	0.139687
345	C	0.778199	0.245409	0.139692
346	C	0.792281	0.231324	0.098403
347	H	0.71559	0.308024	0.099601
348	H	0.739912	0.283693	0.169798
349	H	0.788403	0.235202	0.169806
350	H	0.812736	0.210865	0.099617
351	C	0.792139	0.065441	0.013961
352	C	0.778488	0.038104	0.056303
353	C	0.749837	0.480781	0.056304
354	C	0.736185	0.453443	0.013963
355	N	0.751081	0.483263	0.308775
356	N	0.777243	0.035615	0.308774
357	C	0.736053	0.453206	0.0984
358	C	0.750131	0.481369	0.139691
359	C	0.778198	0.037519	0.13969
360	C	0.792276	0.065681	0.098398
361	H	0.715602	0.412291	0.099611
362	H	0.739924	0.460956	0.169803
363	H	0.788406	0.057934	0.169801
364	H	0.812726	0.106594	0.099607
365	C	0.958162	0.231458	0.013961
366	C	0.985502	0.245117	0.056301
367	C	0.542825	0.273774	0.0563
368	C	0.570161	0.287432	0.013958
369	N	0.540335	0.272524	0.30877
370	N	0.987983	0.246357	0.308772
371	C	0.570403	0.287561	0.098394
372	C	0.542242	0.273481	0.139686
373	C	0.986091	0.245407	0.139688
374	C	0.957927	0.231328	0.098398
375	H	0.611318	0.308014	0.099603
376	H	0.562659	0.283687	0.169798
377	H	0.965679	0.2352	0.169801
378	H	0.917015	0.210875	0.09961
379	C	0.708202	0.397525	0.342348
380	N	0.653757	0.369848	0.343306
381	C	0.626073	0.315401	0.342342
382	N	0.653762	0.288638	0.343299
383	C	0.708208	0.315396	0.342338
384	N	0.734975	0.369847	0.343306
385	C	0.820121	0.121357	0.342348
386	N	0.874568	0.149031	0.343306
387	C	0.902248	0.203477	0.342348
388	N	0.874578	0.230258	0.343313
389	C	0.82013	0.203481	0.342359
390	N	0.793346	0.149032	0.343313
391	C	0.792161	0.231431	0.3473
392	C	0.778496	0.24511	0.389638
393	C	0.749838	0.273775	0.389635
394	C	0.736178	0.287449	0.34729
395	N	0.751086	0.272527	0.642108
396	N	0.777257	0.246346	0.642111
397	C	0.736046	0.287565	0.431725
398	C	0.750123	0.273484	0.47302
399	C	0.778199	0.245409	0.473024
400	C	0.792281	0.231324	0.431735
401	H	0.71559	0.308024	0.432934
402	H	0.739912	0.283693	0.503132
403	H	0.788403	0.235202	0.503139
404	H	0.812736	0.210865	0.432951
405	C	0.792139	0.065441	0.347293
406	C	0.778488	0.038104	0.389635
407	C	0.749837	0.480781	0.389638
408	C	0.736185	0.453443	0.347297
409	N	0.751081	0.483263	0.642108
410	N	0.777243	0.035615	0.642108
411	C	0.736053	0.453206	0.431732
412	C	0.750131	0.481369	0.473024
413	C	0.778198	0.037519	0.473024
414	C	0.792276	0.065681	0.431732
415	H	0.715602	0.412291	0.432944
416	H	0.739924	0.460956	0.503135
417	H	0.788406	0.057934	0.503135
418	H	0.812726	0.106594	0.432941
419	C	0.958162	0.231458	0.347293
420	C	0.985502	0.245117	0.389635
421	C	0.542825	0.273774	0.389631
422	C	0.570161	0.287432	0.34729
423	N	0.540335	0.272524	0.642104
424	N	0.987983	0.246357	0.642104
425	C	0.570403	0.287561	0.431728
426	C	0.542242	0.273481	0.47302
427	C	0.986091	0.245407	0.47302
428	C	0.957927	0.231328	0.431732
429	H	0.611318	0.308014	0.432937
430	H	0.562659	0.283687	0.503132
431	H	0.965679	0.2352	0.503135
432	H	0.917015	0.210875	0.432941
433	C	0.708202	0.397525	0.675683
434	N	0.653757	0.369848	0.676641
435	C	0.626073	0.315401	0.675673
436	N	0.653762	0.288638	0.676631
437	C	0.708208	0.315396	0.675673
438	N	0.734975	0.369847	0.676638
439	C	0.820121	0.121357	0.67568
440	N	0.874568	0.149031	0.676638
441	C	0.902248	0.203477	0.675683
442	N	0.874578	0.230258	0.676644
443	C	0.82013	0.203481	0.675693
444	N	0.793346	0.149032	0.676644
445	C	0.792161	0.231431	0.680635
446	C	0.778496	0.24511	0.722973
447	C	0.749838	0.273775	0.722966
448	C	0.736178	0.287449	0.680625
449	N	0.751086	0.272527	0.975439
450	N	0.777257	0.246346	0.975442
451	C	0.736046	0.287565	0.76506
452	C	0.750123	0.273484	0.806355
453	C	0.778199	0.245409	0.806358
454	C	0.792281	0.231324	0.76507
455	H	0.71559	0.308024	0.766265
456	H	0.739912	0.283693	0.836463
457	H	0.788403	0.235202	0.836473
458	H	0.812736	0.210865	0.766282
459	C	0.792139	0.065441	0.680628
460	C	0.778488	0.038104	0.72297
461	C	0.749837	0.480781	0.72297
462	C	0.736185	0.453443	0.680628
463	N	0.751081	0.483263	0.975442
464	N	0.777243	0.035615	0.975439
465	C	0.736053	0.453206	0.765067
466	C	0.750131	0.481369	0.806358
467	C	0.778198	0.037519	0.806355
468	C	0.792276	0.065681	0.765063
469	H	0.715602	0.412291	0.766276
470	H	0.739924	0.460956	0.83647
471	H	0.788406	0.057934	0.836467
472	H	0.812726	0.106594	0.766272
473	C	0.958162	0.231458	0.680628
474	C	0.985502	0.245117	0.722966
475	C	0.542825	0.273774	0.722966
476	C	0.570161	0.287432	0.680625
477	N	0.540335	0.272524	0.975436
478	N	0.987983	0.246357	0.975439
479	C	0.570403	0.287561	0.76506
480	C	0.542242	0.273481	0.806352
481	C	0.986091	0.245407	0.806355
482	C	0.957927	0.231328	0.765063
483	H	0.611318	0.308014	0.766269
484	H	0.562659	0.283687	0.836463
485	H	0.965679	0.2352	0.836467
486	H	0.917015	0.210875	0.766276
487	C	0.708204	0.897527	0.009015
488	N	0.653758	0.869848	0.009974
489	C	0.626074	0.815403	0.009008
490	N	0.65376	0.788637	0.009966
491	C	0.708208	0.815395	0.009004
492	N	0.734975	0.869848	0.009972
493	C	0.820121	0.621356	0.009015
494	N	0.874567	0.649031	0.009972
495	C	0.902247	0.703476	0.009015
496	N	0.874578	0.730258	0.00998
497	C	0.820129	0.70348	0.009025
498	N	0.793345	0.649031	0.009979
499	C	0.792161	0.731431	0.013967
500	C	0.778497	0.745112	0.056306
501	C	0.749838	0.773775	0.0563
502	C	0.736176	0.787448	0.013958
503	N	0.751086	0.772526	0.308773
504	N	0.777256	0.746345	0.308778
505	C	0.736046	0.787564	0.098394
506	C	0.750122	0.773483	0.139687
507	C	0.778198	0.745408	0.139692
508	C	0.79228	0.731322	0.098403
509	H	0.71559	0.808022	0.099601
510	H	0.739913	0.783694	0.169798
511	H	0.788403	0.735201	0.169806
512	H	0.812736	0.710865	0.099617
513	C	0.792139	0.565442	0.013962
514	C	0.778488	0.538104	0.056303
515	C	0.749837	0.980779	0.056304
516	C	0.736185	0.953441	0.013963
517	N	0.751082	0.983265	0.308775
518	N	0.777243	0.535614	0.308774
519	C	0.736051	0.953204	0.0984
520	C	0.750128	0.981367	0.139691
521	C	0.778199	0.537519	0.13969
522	C	0.792277	0.565682	0.098398
523	H	0.715603	0.912293	0.099611
524	H	0.739924	0.960954	0.169803
525	H	0.788406	0.557933	0.169801
526	H	0.812726	0.606594	0.099607
527	C	0.958162	0.731459	0.013961
528	C	0.985502	0.745116	0.056301
529	C	0.542826	0.773775	0.0563
530	C	0.57016	0.787432	0.013958
531	N	0.540336	0.772526	0.30877
532	N	0.987983	0.746357	0.308772
533	C	0.570402	0.78756	0.098394
534	C	0.542243	0.773483	0.139686
535	C	0.986091	0.745408	0.139688
536	C	0.957926	0.731326	0.098398
537	H	0.611316	0.808014	0.099603
538	H	0.562657	0.783686	0.169798
539	H	0.96568	0.735201	0.169801
540	H	0.917016	0.710877	0.09961
541	C	0.708204	0.897527	0.342348
542	N	0.653758	0.869848	0.343306
543	C	0.626074	0.815403	0.342342
544	N	0.65376	0.788637	0.343299
545	C	0.708208	0.815395	0.342338
546	N	0.734975	0.869848	0.343306
547	C	0.820121	0.621356	0.342348
548	N	0.874567	0.649031	0.343306
549	C	0.902247	0.703476	0.342348
550	N	0.874578	0.730258	0.343313
551	C	0.820129	0.70348	0.342359
552	N	0.793345	0.649031	0.343313
553	C	0.792161	0.731431	0.3473
554	C	0.778497	0.745112	0.389638
555	C	0.749838	0.773775	0.389635
556	C	0.736176	0.787448	0.34729
557	N	0.751086	0.772526	0.642108
558	N	0.777256	0.746345	0.642111
559	C	0.736046	0.787564	0.431725
560	C	0.750122	0.773483	0.47302
561	C	0.778198	0.745408	0.473024
562	C	0.79228	0.731322	0.431735
563	H	0.71559	0.808022	0.432934
564	H	0.739913	0.783694	0.503132
565	H	0.788403	0.735201	0.503139
566	H	0.812736	0.710865	0.432951
567	C	0.792139	0.565442	0.347293
568	C	0.778488	0.538104	0.389635
569	C	0.749837	0.980779	0.389638
570	C	0.736185	0.953441	0.347297
571	N	0.751082	0.983265	0.642108
572	N	0.777243	0.535614	0.642108
573	C	0.736051	0.953204	0.431732
574	C	0.750128	0.981367	0.473024
575	C	0.778199	0.537519	0.473024
576	C	0.792277	0.565682	0.431732
577	H	0.715603	0.912293	0.432944
578	H	0.739924	0.960954	0.503135
579	H	0.788406	0.557933	0.503135
580	H	0.812726	0.606594	0.432941
581	C	0.958162	0.731459	0.347293
582	C	0.985502	0.745116	0.389635
583	C	0.542826	0.773775	0.389631
584	C	0.57016	0.787432	0.34729
585	N	0.540336	0.772526	0.642104
586	N	0.987983	0.746357	0.642104
587	C	0.570402	0.78756	0.431728
588	C	0.542243	0.773483	0.47302
589	C	0.986091	0.745408	0.47302
590	C	0.957926	0.731326	0.431732
591	H	0.611316	0.808014	0.432937
592	H	0.562657	0.783686	0.503132
593	H	0.96568	0.735201	0.503135
594	H	0.917016	0.710877	0.432941
595	C	0.708204	0.897527	0.675683
596	N	0.653758	0.869848	0.676641
597	C	0.626074	0.815403	0.675673
598	N	0.65376	0.788637	0.676631
599	C	0.708208	0.815395	0.675673
600	N	0.734975	0.869848	0.676638
601	C	0.820121	0.621356	0.67568
602	N	0.874567	0.649031	0.676638
603	C	0.902247	0.703476	0.675683
604	N	0.874578	0.730258	0.676644
605	C	0.820129	0.70348	0.675693
606	N	0.793345	0.649031	0.676644
607	C	0.792161	0.731431	0.680635
608	C	0.778497	0.745112	0.722973
609	C	0.749838	0.773775	0.722966
610	C	0.736176	0.787448	0.680625
611	N	0.751086	0.772526	0.975439
612	N	0.777256	0.746345	0.975442
613	C	0.736046	0.787564	0.76506
614	C	0.750122	0.773483	0.806355
615	C	0.778198	0.745408	0.806358
616	C	0.79228	0.731322	0.76507
617	H	0.71559	0.808022	0.766265
618	H	0.739913	0.783694	0.836463
619	H	0.788403	0.735201	0.836473
620	H	0.812736	0.710865	0.766282
621	C	0.792139	0.565442	0.680628
622	C	0.778488	0.538104	0.72297
623	C	0.749837	0.980779	0.72297
624	C	0.736185	0.953441	0.680628
625	N	0.751082	0.983265	0.975442
626	N	0.777243	0.535614	0.975439
627	C	0.736051	0.953204	0.765067
628	C	0.750128	0.981367	0.806358
629	C	0.778199	0.537519	0.806355
630	C	0.792277	0.565682	0.765063
631	H	0.715603	0.912293	0.766276
632	H	0.739924	0.960954	0.83647
633	H	0.788406	0.557933	0.836467
634	H	0.812726	0.606594	0.766272
635	C	0.958162	0.731459	0.680628
636	C	0.985502	0.745116	0.722966
637	C	0.542826	0.773775	0.722966
638	C	0.57016	0.787432	0.680625
639	N	0.540336	0.772526	0.975436
640	N	0.987983	0.746357	0.975439
641	C	0.570402	0.78756	0.76506
642	C	0.542243	0.773483	0.806352
643	C	0.986091	0.745408	0.806355
644	C	0.957926	0.731326	0.765063
645	H	0.611316	0.808014	0.766269
646	H	0.562657	0.783686	0.836463
647	H	0.96568	0.735201	0.836467
648	H	0.917016	0.710877	0.766276
