data_C252H144N144O36_2018-02-15_10:37:53
#******************************************
#
# CIF file created by Zeo++
# Zeo++ is an open source package to
# analyze microporous materials
#
#*******************************************

_cell_length_a		29.1025   
_cell_length_b		29.1025   
_cell_length_c		29.7326   
_cell_angle_alpha		90   
_cell_angle_beta		90   
_cell_angle_gamma		120   

_symmetry_space_group_name_H-M		'P1'
_symmetry_Int_Tables_number		1
_symmetry_cell_setting		Monoclinic

loop_
_symmetry_equiv_pos_as_xyz
'+x,+y,+z'

loop_
_atom_site_label
_atom_site_type_symbol
_atom_site_fract_x
_atom_site_fract_y
_atom_site_fract_z
1	C	0.062553	0.28825	0.02605
2	N	0.035888	0.234141	0.358519
3	C	0.030704	0.312832	0.026757
4	C	0.05054	0.370761	0.028885
5	H	0.017921	0.379135	0.02598
6	H	0.053724	0.379349	0.095001
7	C	0.062553	0.28825	0.359383
8	N	0.035888	0.234141	0.691853
9	C	0.030704	0.312832	0.360093
10	C	0.05054	0.370761	0.362218
11	H	0.017921	0.379135	0.359312
12	H	0.053724	0.379349	0.428334
13	C	0.062553	0.28825	0.692717
14	N	0.035888	0.234141	0.025186
15	C	0.030704	0.312832	0.693423
16	C	0.05054	0.370761	0.695552
17	H	0.017921	0.379135	0.692646
18	H	0.053724	0.379349	0.761668
19	C	0.062554	0.788252	0.02605
20	N	0.035888	0.73414	0.358519
21	C	0.030704	0.812832	0.026757
22	C	0.050544	0.870764	0.028885
23	H	0.017922	0.879136	0.02598
24	H	0.053727	0.87935	0.095001
25	C	0.062554	0.788252	0.359383
26	N	0.035888	0.73414	0.691853
27	C	0.030704	0.812832	0.360093
28	C	0.050544	0.870764	0.362218
29	H	0.017922	0.879136	0.359312
30	H	0.053727	0.87935	0.428334
31	C	0.062554	0.788252	0.692717
32	N	0.035888	0.73414	0.025186
33	C	0.030704	0.812832	0.693423
34	C	0.050544	0.870764	0.695552
35	H	0.017922	0.879136	0.692646
36	H	0.053727	0.87935	0.761668
37	O	0.078834	0.394089	0.069704
38	H	0.076855	0.390147	0.000402
39	O	0.078834	0.394089	0.403039
40	H	0.076855	0.390147	0.333736
41	O	0.078834	0.394089	0.736373
42	H	0.076855	0.390147	0.667068
43	O	0.078834	0.89409	0.069704
44	H	0.076857	0.89015	0.000402
45	O	0.078834	0.89409	0.403039
46	H	0.076857	0.89015	0.333736
47	O	0.078834	0.89409	0.736373
48	H	0.076857	0.89015	0.667068
49	C	0.118651	0.31398	0.025983
50	O	0.117151	0.18699	0.069702
51	H	0.132106	0.141034	0.025977
52	H	0.121093	0.188955	0.000402
53	H	0.131891	0.17662	0.094998
54	C	0.118651	0.31398	0.359316
55	O	0.117151	0.18699	0.403035
56	H	0.132106	0.141034	0.359309
57	H	0.121093	0.188955	0.333734
58	H	0.131891	0.17662	0.428331
59	C	0.118651	0.31398	0.69265
60	O	0.117151	0.18699	0.736369
61	H	0.132106	0.141034	0.692643
62	H	0.121093	0.188955	0.667068
63	H	0.131891	0.17662	0.761665
64	C	0.118653	0.813982	0.025983
65	O	0.117153	0.686992	0.069702
66	H	0.132106	0.641034	0.025977
67	H	0.121094	0.688956	0.000402
68	H	0.131892	0.67662	0.094998
69	C	0.118653	0.813982	0.359316
70	O	0.117153	0.686992	0.403035
71	H	0.132106	0.641034	0.359309
72	H	0.121094	0.688956	0.333734
73	H	0.131892	0.67662	0.428331
74	C	0.118653	0.813982	0.69265
75	O	0.117153	0.686992	0.736369
76	H	0.132106	0.641034	0.692643
77	H	0.121094	0.688956	0.667068
78	H	0.131892	0.67662	0.761665
79	C	0.204323	0.392589	0.02598
80	N	0.150354	0.367602	0.025927
81	N	0.143639	0.284998	0.025929
82	C	0.19726	0.306918	0.025981
83	N	0.226243	0.360887	0.025925
84	C	0.312706	0.116535	0.025124
85	N	0.366697	0.144435	0.025137
86	C	0.394706	0.198417	0.025126
87	N	0.366805	0.224507	0.025137
88	C	0.312823	0.198534	0.025124
89	N	0.286733	0.144543	0.025135
90	C	0.222991	0.276549	0.026047
91	N	0.277099	0.303993	0.358515
92	C	0.3084	0.281762	0.358216
93	C	0.284368	0.226001	0.025316
94	N	0.230462	0.198455	0.026294
95	C	0.198408	0.220118	0.026755
96	H	0.348668	0.305859	0.357533
97	C	0.140479	0.182026	0.028882
98	C	0.234691	0.448688	0.026041
99	N	0.207247	0.475351	0.358508
100	C	0.229478	0.028883	0.358206
101	C	0.285239	0.060613	0.025312
102	N	0.312785	0.034253	0.026292
103	C	0.291123	0.480537	0.026744
104	H	0.205381	0.045054	0.357526
105	C	0.329215	0.460702	0.028904
106	O	0.324228	0.432416	0.069734
107	H	0.370209	0.49332	0.026007
108	H	0.322298	0.434376	0.000433
109	H	0.334587	0.457536	0.095025
110	C	0.482357	0.202841	0.358219
111	C	0.450628	0.226872	0.025317
112	N	0.476987	0.280778	0.026296
113	H	0.466185	0.162573	0.357536
114	C	0.204323	0.392589	0.359312
115	N	0.150354	0.367602	0.359262
116	N	0.143639	0.284998	0.359262
117	C	0.19726	0.306918	0.359316
118	N	0.226243	0.360887	0.359258
119	C	0.312706	0.116535	0.358458
120	N	0.366697	0.144435	0.358471
121	C	0.394706	0.198417	0.358458
122	N	0.366805	0.224507	0.358471
123	C	0.312823	0.198534	0.358458
124	N	0.286733	0.144543	0.358468
125	C	0.222991	0.276549	0.359383
126	N	0.277099	0.303993	0.691849
127	C	0.3084	0.281762	0.69155
128	C	0.284368	0.226001	0.35865
129	N	0.230462	0.198455	0.359628
130	C	0.198408	0.220118	0.360089
131	H	0.348668	0.305859	0.690867
132	C	0.140479	0.182026	0.362215
133	C	0.234691	0.448688	0.359376
134	N	0.207247	0.475351	0.691842
135	C	0.229478	0.028883	0.69154
136	C	0.285239	0.060613	0.358646
137	N	0.312785	0.034253	0.359625
138	C	0.291123	0.480537	0.360079
139	H	0.205381	0.045054	0.69086
140	C	0.329215	0.460702	0.362238
141	O	0.324228	0.432416	0.403069
142	H	0.370209	0.49332	0.359343
143	H	0.322298	0.434376	0.333764
144	H	0.334587	0.457536	0.428358
145	C	0.482357	0.202841	0.691553
146	C	0.450628	0.226872	0.35865
147	N	0.476987	0.280778	0.359628
148	H	0.466185	0.162573	0.69087
149	C	0.204323	0.392589	0.692646
150	N	0.150354	0.367602	0.692596
151	N	0.143639	0.284998	0.692596
152	C	0.19726	0.306918	0.69265
153	N	0.226243	0.360887	0.692592
154	C	0.312706	0.116535	0.691792
155	N	0.366697	0.144435	0.691805
156	C	0.394706	0.198417	0.691792
157	N	0.366805	0.224507	0.691805
158	C	0.312823	0.198534	0.691792
159	N	0.286733	0.144543	0.691802
160	C	0.222991	0.276549	0.692714
161	N	0.277099	0.303993	0.025182
162	C	0.3084	0.281762	0.024884
163	C	0.284368	0.226001	0.691984
164	N	0.230462	0.198455	0.692962
165	C	0.198408	0.220118	0.693423
166	H	0.348668	0.305859	0.0242
167	C	0.140479	0.182026	0.695549
168	C	0.234691	0.448688	0.69271
169	N	0.207247	0.475351	0.025175
170	C	0.229478	0.028883	0.024873
171	C	0.285239	0.060613	0.69198
172	N	0.312785	0.034253	0.692959
173	C	0.291123	0.480537	0.693413
174	H	0.205381	0.045054	0.024194
175	C	0.329215	0.460702	0.695572
176	O	0.324228	0.432416	0.7364
177	H	0.370209	0.49332	0.692673
178	H	0.322298	0.434376	0.667099
179	H	0.334587	0.457536	0.761692
180	C	0.482357	0.202841	0.024886
181	C	0.450628	0.226872	0.691984
182	N	0.476987	0.280778	0.692962
183	H	0.466185	0.162573	0.024204
184	C	0.204324	0.89259	0.02598
185	N	0.150354	0.867602	0.025927
186	N	0.143639	0.784998	0.025929
187	C	0.197262	0.80692	0.025981
188	N	0.226244	0.860889	0.025925
189	C	0.312706	0.616534	0.025124
190	N	0.366697	0.644434	0.025137
191	C	0.394707	0.698419	0.025126
192	N	0.366805	0.724507	0.025137
193	C	0.312823	0.698534	0.025124
194	N	0.286734	0.644546	0.025135
195	C	0.222992	0.776551	0.026047
196	N	0.277101	0.803996	0.358515
197	C	0.308401	0.781765	0.358216
198	C	0.284369	0.726002	0.025316
199	N	0.230463	0.698455	0.026294
200	C	0.198408	0.720118	0.026755
201	H	0.348669	0.80586	0.357533
202	C	0.140479	0.682024	0.028882
203	C	0.234693	0.94869	0.026041
204	N	0.207248	0.975353	0.358508
205	C	0.229478	0.528883	0.358206
206	C	0.285239	0.560613	0.025312
207	N	0.312786	0.534255	0.026292
208	C	0.291123	0.980535	0.026744
209	H	0.205382	0.545055	0.357526
210	C	0.329215	0.9607	0.028904
211	O	0.32423	0.932418	0.069734
212	H	0.370208	0.993319	0.026007
213	H	0.3223	0.934378	0.000433
214	H	0.334587	0.957534	0.095025
215	C	0.482359	0.702843	0.358219
216	C	0.450628	0.726871	0.025317
217	N	0.476989	0.780781	0.026296
218	H	0.466188	0.662575	0.357536
219	C	0.204324	0.89259	0.359312
220	N	0.150354	0.867602	0.359262
221	N	0.143639	0.784998	0.359262
222	C	0.197262	0.80692	0.359316
223	N	0.226244	0.860889	0.359258
224	C	0.312706	0.616534	0.358458
225	N	0.366697	0.644434	0.358471
226	C	0.394707	0.698419	0.358458
227	N	0.366805	0.724507	0.358471
228	C	0.312823	0.698534	0.358458
229	N	0.286734	0.644546	0.358468
230	C	0.222992	0.776551	0.359383
231	N	0.277101	0.803996	0.691849
232	C	0.308401	0.781765	0.69155
233	C	0.284369	0.726002	0.35865
234	N	0.230463	0.698455	0.359628
235	C	0.198408	0.720118	0.360089
236	H	0.348669	0.80586	0.690867
237	C	0.140479	0.682024	0.362215
238	C	0.234693	0.94869	0.359376
239	N	0.207248	0.975353	0.691842
240	C	0.229478	0.528883	0.69154
241	C	0.285239	0.560613	0.358646
242	N	0.312786	0.534255	0.359625
243	C	0.291123	0.980535	0.360079
244	H	0.205382	0.545055	0.69086
245	C	0.329215	0.9607	0.362238
246	O	0.32423	0.932418	0.403069
247	H	0.370208	0.993319	0.359343
248	H	0.3223	0.934378	0.333764
249	H	0.334587	0.957534	0.428358
250	C	0.482359	0.702843	0.691553
251	C	0.450628	0.726871	0.35865
252	N	0.476989	0.780781	0.359628
253	H	0.466188	0.662575	0.69087
254	C	0.204324	0.89259	0.692646
255	N	0.150354	0.867602	0.692596
256	N	0.143639	0.784998	0.692596
257	C	0.197262	0.80692	0.69265
258	N	0.226244	0.860889	0.692592
259	C	0.312706	0.616534	0.691792
260	N	0.366697	0.644434	0.691805
261	C	0.394707	0.698419	0.691792
262	N	0.366805	0.724507	0.691805
263	C	0.312823	0.698534	0.691792
264	N	0.286734	0.644546	0.691802
265	C	0.222992	0.776551	0.692714
266	N	0.277101	0.803996	0.025182
267	C	0.308401	0.781765	0.024884
268	C	0.284369	0.726002	0.691984
269	N	0.230463	0.698455	0.692962
270	C	0.198408	0.720118	0.693423
271	H	0.348669	0.80586	0.0242
272	C	0.140479	0.682024	0.695549
273	C	0.234693	0.94869	0.69271
274	N	0.207248	0.975353	0.025175
275	C	0.229478	0.528883	0.024873
276	C	0.285239	0.560613	0.69198
277	N	0.312786	0.534255	0.692959
278	C	0.291123	0.980535	0.693413
279	H	0.205382	0.545055	0.024194
280	C	0.329215	0.9607	0.695572
281	O	0.32423	0.932418	0.7364
282	H	0.370208	0.993319	0.692673
283	H	0.3223	0.934378	0.667099
284	H	0.334587	0.957534	0.761692
285	C	0.482359	0.702843	0.024886
286	C	0.450628	0.726871	0.691984
287	N	0.476989	0.780781	0.692962
288	H	0.466188	0.662575	0.024204
289	C	0.704324	0.392589	0.02598
290	N	0.650353	0.367602	0.025927
291	C	0.618652	0.31398	0.025983
292	N	0.643639	0.284998	0.025929
293	C	0.697261	0.306918	0.025981
294	N	0.726243	0.360887	0.025925
295	C	0.812708	0.116535	0.025124
296	N	0.866696	0.144435	0.025137
297	C	0.894708	0.198417	0.025126
298	N	0.866804	0.224507	0.025137
299	C	0.812825	0.198534	0.025124
300	N	0.786733	0.144543	0.025135
301	C	0.722991	0.276549	0.026047
302	N	0.777101	0.303993	0.358515
303	C	0.808402	0.281762	0.358216
304	C	0.784369	0.226001	0.025316
305	N	0.730462	0.198455	0.026294
306	C	0.698408	0.220118	0.026755
307	H	0.848668	0.305859	0.357533
308	C	0.640478	0.182026	0.028882
309	O	0.617151	0.18699	0.069702
310	H	0.632108	0.141034	0.025977
311	H	0.621092	0.188955	0.000402
312	H	0.631892	0.17662	0.094998
313	C	0.734693	0.448688	0.026041
314	N	0.707248	0.475351	0.358508
315	C	0.72948	0.028883	0.358206
316	C	0.785238	0.060613	0.025312
317	N	0.812787	0.034253	0.026292
318	C	0.791122	0.480537	0.026744
319	H	0.705383	0.045054	0.357526
320	C	0.829214	0.460702	0.028904
321	O	0.824229	0.432416	0.069734
322	H	0.870209	0.49332	0.026007
323	H	0.822298	0.434376	0.000433
324	H	0.834589	0.457536	0.095025
325	C	0.562554	0.28825	0.02605
326	N	0.535887	0.234141	0.358519
327	C	0.982359	0.202841	0.358219
328	C	0.950629	0.226872	0.025317
329	N	0.976988	0.280778	0.026296
330	C	0.530704	0.312832	0.026757
331	H	0.966187	0.162573	0.357536
332	C	0.550542	0.370761	0.028885
333	O	0.578834	0.394089	0.069704
334	H	0.517922	0.379135	0.02598
335	H	0.576856	0.390147	0.000402
336	H	0.553727	0.379349	0.095001
337	C	0.704324	0.392589	0.359312
338	N	0.650353	0.367602	0.359262
339	C	0.618652	0.31398	0.359316
340	N	0.643639	0.284998	0.359262
341	C	0.697261	0.306918	0.359316
342	N	0.726243	0.360887	0.359258
343	C	0.812708	0.116535	0.358458
344	N	0.866696	0.144435	0.358471
345	C	0.894708	0.198417	0.358458
346	N	0.866804	0.224507	0.358471
347	C	0.812825	0.198534	0.358458
348	N	0.786733	0.144543	0.358468
349	C	0.722991	0.276549	0.359383
350	N	0.777101	0.303993	0.691849
351	C	0.808402	0.281762	0.69155
352	C	0.784369	0.226001	0.35865
353	N	0.730462	0.198455	0.359628
354	C	0.698408	0.220118	0.360089
355	H	0.848668	0.305859	0.690867
356	C	0.640478	0.182026	0.362215
357	O	0.617151	0.18699	0.403035
358	H	0.632108	0.141034	0.359309
359	H	0.621092	0.188955	0.333734
360	H	0.631892	0.17662	0.428331
361	C	0.734693	0.448688	0.359376
362	N	0.707248	0.475351	0.691842
363	C	0.72948	0.028883	0.69154
364	C	0.785238	0.060613	0.358646
365	N	0.812787	0.034253	0.359625
366	C	0.791122	0.480537	0.360079
367	H	0.705383	0.045054	0.69086
368	C	0.829214	0.460702	0.362238
369	O	0.824229	0.432416	0.403069
370	H	0.870209	0.49332	0.359343
371	H	0.822298	0.434376	0.333764
372	H	0.834589	0.457536	0.428358
373	C	0.562554	0.28825	0.359383
374	N	0.535887	0.234141	0.691853
375	C	0.982359	0.202841	0.691553
376	C	0.950629	0.226872	0.35865
377	N	0.976988	0.280778	0.359628
378	C	0.530704	0.312832	0.360093
379	H	0.966187	0.162573	0.69087
380	C	0.550542	0.370761	0.362218
381	O	0.578834	0.394089	0.403039
382	H	0.517922	0.379135	0.359312
383	H	0.576856	0.390147	0.333736
384	H	0.553727	0.379349	0.428334
385	C	0.704324	0.392589	0.692646
386	N	0.650353	0.367602	0.692596
387	C	0.618652	0.31398	0.69265
388	N	0.643639	0.284998	0.692596
389	C	0.697261	0.306918	0.69265
390	N	0.726243	0.360887	0.692592
391	C	0.812708	0.116535	0.691792
392	N	0.866696	0.144435	0.691805
393	C	0.894708	0.198417	0.691792
394	N	0.866804	0.224507	0.691805
395	C	0.812825	0.198534	0.691792
396	N	0.786733	0.144543	0.691802
397	C	0.722991	0.276549	0.692714
398	N	0.777101	0.303993	0.025182
399	C	0.808402	0.281762	0.024884
400	C	0.784369	0.226001	0.691984
401	N	0.730462	0.198455	0.692962
402	C	0.698408	0.220118	0.693423
403	H	0.848668	0.305859	0.0242
404	C	0.640478	0.182026	0.695549
405	O	0.617151	0.18699	0.736369
406	H	0.632108	0.141034	0.692643
407	H	0.621092	0.188955	0.667068
408	H	0.631892	0.17662	0.761665
409	C	0.734693	0.448688	0.69271
410	N	0.707248	0.475351	0.025175
411	C	0.72948	0.028883	0.024873
412	C	0.785238	0.060613	0.69198
413	N	0.812787	0.034253	0.692959
414	C	0.791122	0.480537	0.693413
415	H	0.705383	0.045054	0.024194
416	C	0.829214	0.460702	0.695572
417	O	0.824229	0.432416	0.7364
418	H	0.870209	0.49332	0.692673
419	H	0.822298	0.434376	0.667099
420	H	0.834589	0.457536	0.761692
421	C	0.562554	0.28825	0.692717
422	N	0.535887	0.234141	0.025186
423	C	0.982359	0.202841	0.024886
424	C	0.950629	0.226872	0.691984
425	N	0.976988	0.280778	0.692962
426	C	0.530704	0.312832	0.693423
427	H	0.966187	0.162573	0.024204
428	C	0.550542	0.370761	0.695552
429	O	0.578834	0.394089	0.736373
430	H	0.517922	0.379135	0.692646
431	H	0.576856	0.390147	0.667068
432	H	0.553727	0.379349	0.761668
433	C	0.704325	0.89259	0.02598
434	N	0.650355	0.867602	0.025927
435	C	0.618654	0.813982	0.025983
436	N	0.64364	0.784998	0.025929
437	C	0.697263	0.80692	0.025981
438	N	0.726244	0.860889	0.025925
439	C	0.812706	0.616534	0.025124
440	N	0.866697	0.644434	0.025137
441	C	0.894707	0.698419	0.025126
442	N	0.866806	0.724507	0.025137
443	C	0.812823	0.698534	0.025124
444	N	0.786736	0.644546	0.025135
445	C	0.722993	0.776551	0.026047
446	N	0.777101	0.803996	0.358515
447	C	0.808401	0.781765	0.358216
448	C	0.784368	0.726002	0.025316
449	N	0.730464	0.698455	0.026294
450	C	0.698409	0.720118	0.026755
451	H	0.84867	0.80586	0.357533
452	C	0.640479	0.682024	0.028882
453	O	0.617154	0.686992	0.069702
454	H	0.632107	0.641034	0.025977
455	H	0.621094	0.688956	0.000402
456	H	0.631893	0.67662	0.094998
457	C	0.734694	0.94869	0.026041
458	N	0.707249	0.975353	0.358508
459	C	0.729478	0.528883	0.358206
460	C	0.78524	0.560613	0.025312
461	N	0.812786	0.534255	0.026292
462	C	0.791123	0.980535	0.026744
463	H	0.705381	0.545055	0.357526
464	C	0.829215	0.9607	0.028904
465	O	0.824232	0.932418	0.069734
466	H	0.87021	0.993319	0.026007
467	H	0.822301	0.934378	0.000433
468	H	0.834587	0.957534	0.095025
469	C	0.562555	0.788252	0.02605
470	N	0.535889	0.73414	0.358519
471	C	0.982358	0.702843	0.358219
472	C	0.950627	0.726871	0.025317
473	N	0.976991	0.780781	0.026296
474	C	0.530705	0.812832	0.026757
475	H	0.966189	0.662575	0.357536
476	C	0.550543	0.870764	0.028885
477	O	0.578835	0.89409	0.069704
478	H	0.517923	0.879136	0.02598
479	H	0.576858	0.89015	0.000402
480	H	0.553726	0.87935	0.095001
481	C	0.704325	0.89259	0.359312
482	N	0.650355	0.867602	0.359262
483	C	0.618654	0.813982	0.359316
484	N	0.64364	0.784998	0.359262
485	C	0.697263	0.80692	0.359316
486	N	0.726244	0.860889	0.359258
487	C	0.812706	0.616534	0.358458
488	N	0.866697	0.644434	0.358471
489	C	0.894707	0.698419	0.358458
490	N	0.866806	0.724507	0.358471
491	C	0.812823	0.698534	0.358458
492	N	0.786736	0.644546	0.358468
493	C	0.722993	0.776551	0.359383
494	N	0.777101	0.803996	0.691849
495	C	0.808401	0.781765	0.69155
496	C	0.784368	0.726002	0.35865
497	N	0.730464	0.698455	0.359628
498	C	0.698409	0.720118	0.360089
499	H	0.84867	0.80586	0.690867
500	C	0.640479	0.682024	0.362215
501	O	0.617154	0.686992	0.403035
502	H	0.632107	0.641034	0.359309
503	H	0.621094	0.688956	0.333734
504	H	0.631893	0.67662	0.428331
505	C	0.734694	0.94869	0.359376
506	N	0.707249	0.975353	0.691842
507	C	0.729478	0.528883	0.69154
508	C	0.78524	0.560613	0.358646
509	N	0.812786	0.534255	0.359625
510	C	0.791123	0.980535	0.360079
511	H	0.705381	0.545055	0.69086
512	C	0.829215	0.9607	0.362238
513	O	0.824232	0.932418	0.403069
514	H	0.87021	0.993319	0.359343
515	H	0.822301	0.934378	0.333764
516	H	0.834587	0.957534	0.428358
517	C	0.562555	0.788252	0.359383
518	N	0.535889	0.73414	0.691853
519	C	0.982358	0.702843	0.691553
520	C	0.950627	0.726871	0.35865
521	N	0.976991	0.780781	0.359628
522	C	0.530705	0.812832	0.360093
523	H	0.966189	0.662575	0.69087
524	C	0.550543	0.870764	0.362218
525	O	0.578835	0.89409	0.403039
526	H	0.517923	0.879136	0.359312
527	H	0.576858	0.89015	0.333736
528	H	0.553726	0.87935	0.428334
529	C	0.704325	0.89259	0.692646
530	N	0.650355	0.867602	0.692596
531	C	0.618654	0.813982	0.69265
532	N	0.64364	0.784998	0.692596
533	C	0.697263	0.80692	0.69265
534	N	0.726244	0.860889	0.692592
535	C	0.812706	0.616534	0.691792
536	N	0.866697	0.644434	0.691805
537	C	0.894707	0.698419	0.691792
538	N	0.866806	0.724507	0.691805
539	C	0.812823	0.698534	0.691792
540	N	0.786736	0.644546	0.691802
541	C	0.722993	0.776551	0.692714
542	N	0.777101	0.803996	0.025182
543	C	0.808401	0.781765	0.024884
544	C	0.784368	0.726002	0.691984
545	N	0.730464	0.698455	0.692962
546	C	0.698409	0.720118	0.693423
547	H	0.84867	0.80586	0.0242
548	C	0.640479	0.682024	0.695549
549	O	0.617154	0.686992	0.736369
550	H	0.632107	0.641034	0.692643
551	H	0.621094	0.688956	0.667068
552	H	0.631893	0.67662	0.761665
553	C	0.734694	0.94869	0.69271
554	N	0.707249	0.975353	0.025175
555	C	0.729478	0.528883	0.024873
556	C	0.78524	0.560613	0.69198
557	N	0.812786	0.534255	0.692959
558	C	0.791123	0.980535	0.693413
559	H	0.705381	0.545055	0.024194
560	C	0.829215	0.9607	0.695572
561	O	0.824232	0.932418	0.7364
562	H	0.87021	0.993319	0.692673
563	H	0.822301	0.934378	0.667099
564	H	0.834587	0.957534	0.761692
565	C	0.562555	0.788252	0.692717
566	N	0.535889	0.73414	0.025186
567	C	0.982358	0.702843	0.024886
568	C	0.950627	0.726871	0.691984
569	N	0.976991	0.780781	0.692962
570	C	0.530705	0.812832	0.693423
571	H	0.966189	0.662575	0.024204
572	C	0.550543	0.870764	0.695552
573	O	0.578835	0.89409	0.736373
574	H	0.517923	0.879136	0.692646
575	H	0.576858	0.89015	0.667068
576	H	0.553726	0.87935	0.761668
