data_C144H72N54O36_2018-02-15_10:45:18
#******************************************
#
# CIF file created by Zeo++
# Zeo++ is an open source package to
# analyze microporous materials
#
#*******************************************

_cell_length_a		29.2349   
_cell_length_b		29.2348   
_cell_length_c		29.9132   
_cell_angle_alpha		90   
_cell_angle_beta		90   
_cell_angle_gamma		120   

_symmetry_space_group_name_H-M		'P1'
_symmetry_Int_Tables_number		1
_symmetry_cell_setting		Monoclinic

loop_
_symmetry_equiv_pos_as_xyz
'+x,+y,+z'

loop_
_atom_site_label
_atom_site_type_symbol
_atom_site_fract_x
_atom_site_fract_y
_atom_site_fract_z
1	C	0.030633	0.518827	0.008764
2	C	0.030633	0.518827	0.342096
3	C	0.030633	0.518827	0.67543
4	H	0.040825	0.538157	0.27303
5	H	0.037827	0.51041	0.078242
6	H	0.040825	0.538157	0.606364
7	H	0.037827	0.51041	0.411577
8	H	0.040825	0.538157	0.939698
9	H	0.037827	0.51041	0.744908
10	C	0.281481	0.640554	0.019236
11	N	0.309285	0.61477	0.019206
12	C	0.36307	0.641652	0.019244
13	N	0.388851	0.695238	0.019244
14	C	0.36197	0.72214	0.019278
15	N	0.308384	0.694338	0.019243
16	N	0.229267	0.611764	0.0187
17	N	0.385399	0.774356	0.018782
18	N	0.391857	0.618226	0.018705
19	C	0.722847	0.362196	0.000885
20	N	0.695199	0.388138	0.001072
21	C	0.641428	0.361376	0.000865
22	N	0.615488	0.307786	0.001062
23	C	0.642248	0.280778	0.000865
24	N	0.695839	0.308427	0.001076
25	N	0.77503	0.390817	0.002042
26	N	0.618687	0.228595	0.002028
27	N	0.612808	0.384937	0.002023
28	C	0.413972	0.552692	0.013053
29	C	0.439561	0.549971	0.052455
30	C	0.474797	0.529997	0.049746
31	C	0.484794	0.512527	0.008757
32	C	0.459453	0.516149	0.303161
33	C	0.424185	0.535597	0.305326
34	H	0.465463	0.503391	0.273024
35	H	0.405743	0.536759	0.276571
36	C	0.519258	0.491325	0.006639
37	C	0.509383	0.445693	0.031227
38	C	0.54515	0.426419	0.027857
39	C	0.590737	0.451594	0.333914
40	C	0.599925	0.496925	0.309707
41	C	0.564557	0.516216	0.312408
42	H	0.537742	0.393733	0.04603
43	H	0.632564	0.516429	0.289712
44	H	0.572801	0.549386	0.29459
45	H	0.493215	0.52814	0.078235
46	N	0.463316	0.419305	0.05788
47	N	0.428847	0.566334	0.093792
48	O	0.474546	0.418002	0.098243
49	O	0.409036	0.528942	0.121408
50	O	0.433604	0.372822	0.044577
51	O	0.470067	0.603703	0.110503
52	C	0.626981	0.434109	0.331618
53	C	0.377147	0.569095	0.01384
54	H	0.664842	0.460532	0.326309
55	H	0.339379	0.542312	0.008835
56	C	0.450908	0.862	0.013073
57	C	0.453641	0.89032	0.052473
58	C	0.473628	0.94553	0.049762
59	C	0.49111	0.972996	0.008774
60	C	0.487507	0.944033	0.303183
61	C	0.468045	0.889313	0.30535
62	H	0.500258	0.962794	0.273043
63	H	0.466877	0.869706	0.276597
64	C	0.512307	0.028661	0.006652
65	C	0.557935	0.064422	0.031242
66	C	0.577202	0.119463	0.027872
67	C	0.552022	0.139867	0.333925
68	C	0.5067	0.103721	0.309709
69	C	0.487413	0.049063	0.312418
70	H	0.609897	0.144744	0.046031
71	H	0.487202	0.116854	0.289705
72	H	0.454254	0.024133	0.294592
73	H	0.475481	0.965808	0.078249
74	N	0.584333	0.044748	0.057887
75	N	0.437273	0.863245	0.093811
76	O	0.585642	0.05728	0.098251
77	O	0.474665	0.880817	0.121427
78	O	0.630816	0.061526	0.044578
79	O	0.399911	0.867111	0.110522
80	C	0.569518	0.193598	0.331603
81	C	0.43452	0.808774	0.013868
82	H	0.543095	0.205038	0.32629
83	H	0.461277	0.797786	0.008708
84	C	0.14162	0.58965	0.013056
85	C	0.113312	0.564063	0.052459
86	C	0.058102	0.528828	0.049752
87	C	0.059593	0.544164	0.303166
88	C	0.114312	0.579436	0.305329
89	H	0.133913	0.597877	0.276574
90	C	0.974967	0.484365	0.006648
91	C	0.939212	0.494244	0.031237
92	C	0.88417	0.458475	0.02787
93	C	0.863756	0.412887	0.333929
94	C	0.899894	0.403692	0.309722
95	C	0.954556	0.439062	0.31242
96	H	0.858895	0.465884	0.046043
97	H	0.886759	0.371052	0.28973
98	H	0.979482	0.430819	0.294602
99	N	0.958894	0.540313	0.057886
100	N	0.140389	0.574779	0.093795
101	O	0.946363	0.529084	0.098251
102	O	0.12281	0.594595	0.121411
103	O	0.942123	0.570023	0.044582
104	O	0.13654	0.533559	0.110508
105	C	0.810025	0.376639	0.331637
106	C	0.194848	0.626477	0.013842
107	H	0.798588	0.338778	0.326332
108	H	0.205837	0.664249	0.008837
109	C	0.281481	0.640554	0.35257
110	N	0.309285	0.61477	0.35254
111	C	0.36307	0.641652	0.352577
112	N	0.388851	0.695238	0.352577
113	C	0.36197	0.72214	0.352613
114	N	0.308384	0.694338	0.352577
115	N	0.229267	0.611764	0.352035
116	N	0.385399	0.774356	0.352115
117	N	0.391857	0.618226	0.352038
118	C	0.722847	0.362196	0.33422
119	N	0.695199	0.388138	0.334407
120	C	0.641428	0.361376	0.334197
121	N	0.615488	0.307786	0.334394
122	C	0.642248	0.280778	0.334199
123	N	0.695839	0.308427	0.334407
124	N	0.77503	0.390817	0.335377
125	N	0.618687	0.228595	0.33536
126	N	0.612808	0.384937	0.335357
127	C	0.413972	0.552692	0.346385
128	C	0.439561	0.549971	0.385789
129	C	0.474797	0.529997	0.383078
130	C	0.484794	0.512527	0.34209
131	C	0.459453	0.516149	0.636495
132	C	0.424185	0.535597	0.638661
133	H	0.465463	0.503391	0.606357
134	H	0.405743	0.536759	0.609904
135	C	0.519258	0.491325	0.339973
136	C	0.509383	0.445693	0.364561
137	C	0.54515	0.426419	0.361191
138	C	0.590737	0.451594	0.667247
139	C	0.599925	0.496925	0.64304
140	C	0.564557	0.516216	0.645741
141	H	0.537742	0.393733	0.379364
142	H	0.632564	0.516429	0.623046
143	H	0.572801	0.549386	0.627923
144	H	0.493215	0.52814	0.411567
145	N	0.463316	0.419305	0.391215
146	N	0.428847	0.566334	0.427126
147	O	0.474546	0.418002	0.431578
148	O	0.409036	0.528942	0.454742
149	O	0.433604	0.372822	0.37791
150	O	0.470067	0.603703	0.443837
151	C	0.626981	0.434109	0.66495
152	C	0.377147	0.569095	0.347174
153	H	0.664842	0.460532	0.659641
154	H	0.339379	0.542312	0.34217
155	C	0.450908	0.862	0.346405
156	C	0.453641	0.89032	0.385806
157	C	0.473628	0.94553	0.383095
158	C	0.49111	0.972996	0.342106
159	C	0.487507	0.944033	0.636518
160	C	0.468045	0.889313	0.638684
161	H	0.500258	0.962794	0.606377
162	H	0.466877	0.869706	0.609931
163	C	0.512307	0.028661	0.339987
164	C	0.557935	0.064422	0.364575
165	C	0.577202	0.119463	0.361205
166	C	0.552022	0.139867	0.667257
167	C	0.5067	0.103721	0.643043
168	C	0.487413	0.049063	0.645751
169	H	0.609897	0.144744	0.379364
170	H	0.487202	0.116854	0.623039
171	H	0.454254	0.024133	0.627926
172	H	0.475481	0.965808	0.411584
173	N	0.584333	0.044748	0.391222
174	N	0.437273	0.863245	0.427146
175	O	0.585642	0.05728	0.431585
176	O	0.474665	0.880817	0.454759
177	O	0.630816	0.061526	0.37791
178	O	0.399911	0.867111	0.443857
179	C	0.569518	0.193598	0.664937
180	C	0.43452	0.808774	0.347201
181	H	0.543095	0.205038	0.659625
182	H	0.461277	0.797786	0.342043
183	C	0.14162	0.58965	0.346389
184	C	0.113312	0.564063	0.385793
185	C	0.058102	0.528828	0.383085
186	C	0.059593	0.544164	0.636501
187	C	0.114312	0.579436	0.638664
188	H	0.133913	0.597877	0.609908
189	C	0.974967	0.484365	0.33998
190	C	0.939212	0.494244	0.364571
191	C	0.88417	0.458475	0.361202
192	C	0.863756	0.412887	0.667264
193	C	0.899894	0.403692	0.643057
194	C	0.954556	0.439062	0.645755
195	H	0.858895	0.465884	0.379377
196	H	0.886759	0.371052	0.623062
197	H	0.979482	0.430819	0.627936
198	N	0.958894	0.540313	0.391218
199	N	0.140389	0.574779	0.427129
200	O	0.946363	0.529084	0.431585
201	O	0.12281	0.594595	0.454745
202	O	0.942123	0.570023	0.377917
203	O	0.13654	0.533559	0.443841
204	C	0.810025	0.376639	0.66497
205	C	0.194848	0.626477	0.347174
206	H	0.798588	0.338778	0.659665
207	H	0.205837	0.664249	0.34217
208	C	0.281481	0.640554	0.685904
209	N	0.309285	0.61477	0.685874
210	C	0.36307	0.641652	0.685911
211	N	0.388851	0.695238	0.685911
212	C	0.36197	0.72214	0.685944
213	N	0.308384	0.694338	0.685911
214	N	0.229267	0.611764	0.685366
215	N	0.385399	0.774356	0.685449
216	N	0.391857	0.618226	0.685373
217	C	0.722847	0.362196	0.667554
218	N	0.695199	0.388138	0.667738
219	C	0.641428	0.361376	0.667531
220	N	0.615488	0.307786	0.667728
221	C	0.642248	0.280778	0.667534
222	N	0.695839	0.308427	0.667742
223	N	0.77503	0.390817	0.668708
224	N	0.618687	0.228595	0.668694
225	N	0.612808	0.384937	0.668691
226	C	0.413972	0.552692	0.67972
227	C	0.439561	0.549971	0.719124
228	C	0.474797	0.529997	0.716412
229	C	0.484794	0.512527	0.675424
230	C	0.459453	0.516149	0.969829
231	C	0.424185	0.535597	0.971992
232	H	0.465463	0.503391	0.939692
233	H	0.405743	0.536759	0.943239
234	C	0.519258	0.491325	0.673304
235	C	0.509383	0.445693	0.697895
236	C	0.54515	0.426419	0.694522
237	C	0.590737	0.451594	0.000581
238	C	0.599925	0.496925	0.976374
239	C	0.564557	0.516216	0.979076
240	H	0.537742	0.393733	0.712698
241	H	0.632564	0.516429	0.95638
242	H	0.572801	0.549386	0.961257
243	H	0.493215	0.52814	0.744901
244	N	0.463316	0.419305	0.724546
245	N	0.428847	0.566334	0.76046
246	O	0.474546	0.418002	0.764909
247	O	0.409036	0.528942	0.788076
248	O	0.433604	0.372822	0.711244
249	O	0.470067	0.603703	0.777171
250	C	0.626981	0.434109	0.998284
251	C	0.377147	0.569095	0.680509
252	H	0.664842	0.460532	0.992976
253	H	0.339379	0.542312	0.675501
254	C	0.450908	0.862	0.67974
255	C	0.453641	0.89032	0.71914
256	C	0.473628	0.94553	0.716429
257	C	0.49111	0.972996	0.675441
258	C	0.487507	0.944033	0.969849
259	C	0.468045	0.889313	0.972018
260	H	0.500258	0.962794	0.939712
261	H	0.466877	0.869706	0.943265
262	C	0.512307	0.028661	0.673318
263	C	0.557935	0.064422	0.697909
264	C	0.577202	0.119463	0.694539
265	C	0.552022	0.139867	0.000591
266	C	0.5067	0.103721	0.976374
267	C	0.487413	0.049063	0.979086
268	H	0.609897	0.144744	0.712698
269	H	0.487202	0.116854	0.956373
270	H	0.454254	0.024133	0.961261
271	H	0.475481	0.965808	0.744915
272	N	0.584333	0.044748	0.724553
273	N	0.437273	0.863245	0.760476
274	O	0.585642	0.05728	0.764919
275	O	0.474665	0.880817	0.788093
276	O	0.630816	0.061526	0.711244
277	O	0.399911	0.867111	0.777188
278	C	0.569518	0.193598	0.998271
279	C	0.43452	0.808774	0.680535
280	H	0.543095	0.205038	0.992956
281	H	0.461277	0.797786	0.675377
282	C	0.14162	0.58965	0.679723
283	C	0.113312	0.564063	0.719127
284	C	0.058102	0.528828	0.716419
285	C	0.059593	0.544164	0.969832
286	C	0.114312	0.579436	0.971995
287	H	0.133913	0.597877	0.943242
288	C	0.974967	0.484365	0.673314
289	C	0.939212	0.494244	0.697905
290	C	0.88417	0.458475	0.694536
291	C	0.863756	0.412887	0.000598
292	C	0.899894	0.403692	0.976391
293	C	0.954556	0.439062	0.979089
294	H	0.858895	0.465884	0.712712
295	H	0.886759	0.371052	0.956397
296	H	0.979482	0.430819	0.961267
297	N	0.958894	0.540313	0.724553
298	N	0.140389	0.574779	0.760463
299	O	0.946363	0.529084	0.764916
300	O	0.12281	0.594595	0.78808
301	O	0.942123	0.570023	0.711247
302	O	0.13654	0.533559	0.777175
303	C	0.810025	0.376639	0.998304
304	C	0.194848	0.626477	0.680509
305	H	0.798588	0.338778	0.992999
306	H	0.205837	0.664249	0.675504
