data_C243H162N54_2018-02-15_10:37:17
#******************************************
#
# CIF file created by Zeo++
# Zeo++ is an open source package to
# analyze microporous materials
#
#*******************************************

_cell_length_a		30.1001   
_cell_length_b		30.1001   
_cell_length_c		29.4036   
_cell_angle_alpha		90   
_cell_angle_beta		90   
_cell_angle_gamma		120   

_symmetry_space_group_name_H-M		'P1'
_symmetry_Int_Tables_number		1
_symmetry_cell_setting		Monoclinic

loop_
_symmetry_equiv_pos_as_xyz
'+x,+y,+z'

loop_
_atom_site_label
_atom_site_type_symbol
_atom_site_fract_x
_atom_site_fract_y
_atom_site_fract_z
1	C	0.124114	0.564743	0.009876
2	C	0.041919	0.523439	0.300349
3	C	0.069835	0.537437	0.341985
4	C	0.042698	0.523926	0.050285
5	H	0.062077	0.533666	0.08059
6	C	0.068683	0.536773	0.255634
7	H	0.042086	0.523412	0.226941
8	H	0.092832	0.519353	0.252821
9	H	0.092773	0.578338	0.252726
10	C	0.124114	0.564743	0.34321
11	C	0.041919	0.523439	0.633681
12	C	0.069835	0.537437	0.675319
13	C	0.042698	0.523926	0.383616
14	H	0.062077	0.533666	0.413922
15	C	0.068683	0.536773	0.588969
16	H	0.042086	0.523412	0.560275
17	H	0.092832	0.519353	0.586156
18	H	0.092773	0.578338	0.586057
19	C	0.124114	0.564743	0.676543
20	C	0.041919	0.523439	0.967014
21	C	0.069835	0.537437	0.008652
22	C	0.042698	0.523926	0.71695
23	H	0.062077	0.533666	0.747255
24	C	0.068683	0.536773	0.922302
25	H	0.042086	0.523412	0.893608
26	H	0.092832	0.519353	0.919489
27	H	0.092773	0.578338	0.919391
28	C	0.202377	0.643554	0.009781
29	N	0.150209	0.617096	0.009635
30	N	0.150632	0.538906	0.010241
31	C	0.202812	0.565065	0.010422
32	N	0.227762	0.617	0.010304
33	C	0.258236	0.542255	0.053188
34	C	0.233646	0.542155	0.011702
35	C	0.256979	0.541296	0.303534
36	H	0.243286	0.546678	0.273342
37	C	0.237995	0.547212	0.098018
38	H	0.259428	0.544177	0.126657
39	H	0.198104	0.516813	0.101581
40	H	0.239875	0.584296	0.100415
41	C	0.232657	0.697268	0.010225
42	C	0.256585	0.720876	0.051718
43	H	0.24141	0.701162	0.081396
44	C	0.257894	0.721862	0.302886
45	H	0.24493	0.70341	0.272349
46	C	0.202377	0.643554	0.343114
47	N	0.150209	0.617096	0.342968
48	N	0.150632	0.538906	0.343574
49	C	0.202812	0.565065	0.343757
50	N	0.227762	0.617	0.343638
51	C	0.258236	0.542255	0.386521
52	C	0.233646	0.542155	0.345036
53	C	0.256979	0.541296	0.636868
54	H	0.243286	0.546678	0.606674
55	C	0.237995	0.547212	0.431352
56	H	0.259428	0.544177	0.459991
57	H	0.198104	0.516813	0.434913
58	H	0.239875	0.584296	0.433746
59	C	0.232657	0.697268	0.34356
60	C	0.256585	0.720876	0.385051
61	H	0.24141	0.701162	0.414728
62	C	0.257894	0.721862	0.636218
63	H	0.24493	0.70341	0.605684
64	C	0.202377	0.643554	0.676448
65	N	0.150209	0.617096	0.676302
66	N	0.150632	0.538906	0.676907
67	C	0.202812	0.565065	0.677091
68	N	0.227762	0.617	0.676972
69	C	0.258236	0.542255	0.719854
70	C	0.233646	0.542155	0.678369
71	C	0.256979	0.541296	0.970201
72	H	0.243286	0.546678	0.940007
73	C	0.237995	0.547212	0.764685
74	H	0.259428	0.544177	0.793325
75	H	0.198104	0.516813	0.768246
76	H	0.239875	0.584296	0.76708
77	C	0.232657	0.697268	0.676893
78	C	0.256585	0.720876	0.718385
79	H	0.24141	0.701162	0.748061
80	C	0.257894	0.721862	0.969551
81	H	0.24493	0.70341	0.939018
82	C	0.304615	0.540874	0.051746
83	C	0.303444	0.540809	0.302791
84	C	0.304262	0.767337	0.0532
85	C	0.304829	0.768342	0.30361
86	H	0.304985	0.766178	0.126659
87	C	0.304615	0.540874	0.385079
88	C	0.303444	0.540809	0.636126
89	C	0.304262	0.767337	0.386534
90	C	0.304829	0.768342	0.636942
91	H	0.304985	0.766178	0.459991
92	C	0.304615	0.540874	0.718412
93	C	0.303444	0.540809	0.96946
94	C	0.304262	0.767337	0.719868
95	C	0.304829	0.768342	0.970276
96	H	0.304985	0.766178	0.793325
97	C	0.381732	0.563826	0.009686
98	N	0.408185	0.538108	0.009574
99	C	0.460538	0.564348	0.009904
100	N	0.486381	0.616701	0.010331
101	C	0.460241	0.642741	0.010401
102	N	0.408304	0.615772	0.01026
103	C	0.461462	0.822981	0.009662
104	N	0.487216	0.875153	0.009655
105	C	0.461005	0.901297	0.009904
106	N	0.408653	0.874823	0.010222
107	C	0.382582	0.822647	0.010231
108	N	0.409519	0.797647	0.010157
109	C	0.828127	0.376745	0.009529
110	N	0.880299	0.403208	0.010046
111	C	0.906387	0.455557	0.010594
112	N	0.879863	0.481386	0.01077
113	C	0.827679	0.455231	0.010261
114	N	0.802737	0.4033	0.009757
115	C	0.648619	0.456412	0.009315
116	N	0.622161	0.482126	0.010029
117	C	0.569815	0.455879	0.01062
118	N	0.543981	0.403526	0.010734
119	C	0.570118	0.377483	0.010029
120	N	0.622052	0.404466	0.009523
121	C	0.568856	0.197298	0.009478
122	N	0.543142	0.145125	0.010125
123	C	0.56939	0.119022	0.010638
124	N	0.621741	0.145532	0.010705
125	C	0.647777	0.197711	0.010104
126	N	0.620801	0.222669	0.009642
127	C	0.960534	0.482802	0.3434
128	C	0.987509	0.496202	0.301752
129	H	0.967097	0.485928	0.271978
130	C	0.988694	0.496942	0.051009
131	H	0.970096	0.487666	0.081681
132	C	0.54256	0.482779	0.343448
133	C	0.529142	0.49634	0.301801
134	C	0.501877	0.523481	0.300393
135	C	0.487852	0.537379	0.34203
136	C	0.501383	0.523772	0.050327
137	H	0.539429	0.486212	0.272027
138	C	0.528396	0.496777	0.051055
139	H	0.491627	0.533397	0.080631
140	H	0.537676	0.487463	0.081727
141	C	0.488546	0.536907	0.255674
142	H	0.501931	0.523692	0.226983
143	H	0.505946	0.578477	0.252868
144	H	0.44698	0.519414	0.252753
145	C	0.542498	0.064874	0.343455
146	C	0.528973	0.037903	0.301807
147	C	0.501859	0.983495	0.300399
148	C	0.487986	0.955575	0.342036
149	C	0.501566	0.982709	0.050336
150	H	0.539091	0.058319	0.272034
151	C	0.528518	0.036714	0.051063
152	H	0.49194	0.963325	0.080639
153	H	0.537815	0.055308	0.081737
154	C	0.488451	0.956742	0.255678
155	H	0.501663	0.983346	0.226989
156	H	0.446886	0.932558	0.252866
157	H	0.505964	0.932685	0.252761
158	C	0.327986	0.540349	0.010199
159	H	0.324419	0.545585	0.081401
160	H	0.321855	0.546149	0.272253
161	C	0.484868	0.792663	0.010351
162	C	0.484723	0.768875	0.051832
163	C	0.483446	0.721168	0.053308
164	C	0.483229	0.69649	0.011878
165	C	0.483555	0.720428	0.303681
166	H	0.480397	0.78417	0.081526
167	C	0.483852	0.767291	0.302972
168	H	0.477802	0.701239	0.273499
169	H	0.47829	0.780192	0.272429
170	C	0.478698	0.696049	0.098129
171	H	0.481806	0.720543	0.126769
172	H	0.509145	0.686608	0.101586
173	H	0.441647	0.660817	0.100622
174	C	0.328836	0.791923	0.011783
175	H	0.323862	0.781968	0.273384
176	C	0.329434	0.787634	0.098018
177	H	0.338842	0.827504	0.101562
178	H	0.364689	0.78585	0.100422
179	C	0.702331	0.479809	0.009846
180	C	0.726168	0.480001	0.051349
181	C	0.772555	0.478616	0.052873
182	C	0.796832	0.478148	0.011396
183	C	0.773167	0.47826	0.303216
184	H	0.706527	0.475616	0.081038
185	C	0.726711	0.478743	0.302492
186	H	0.786647	0.472455	0.273082
187	H	0.70811	0.472843	0.271986
188	C	0.792906	0.473944	0.09774
189	H	0.771576	0.477216	0.126346
190	H	0.832828	0.504327	0.101148
191	H	0.790973	0.436848	0.100345
192	C	0.545422	0.227613	0.009931
193	C	0.545336	0.251253	0.051439
194	C	0.546652	0.298995	0.052872
195	C	0.547182	0.323722	0.011368
196	C	0.547287	0.299986	0.3032
197	H	0.549489	0.235884	0.08116
198	C	0.546714	0.253	0.302499
199	H	0.553071	0.319196	0.273022
200	H	0.552538	0.240189	0.272017
201	C	0.551298	0.324096	0.097687
202	H	0.548058	0.299562	0.126339
203	H	0.520886	0.333596	0.101046
204	H	0.588373	0.359289	0.100253
205	C	0.797828	0.32303	0.009822
206	C	0.774031	0.29923	0.051307
207	C	0.726238	0.252859	0.052762
208	C	0.701523	0.228553	0.011266
209	C	0.725495	0.252204	0.303144
210	H	0.789244	0.318832	0.081024
211	C	0.77242	0.298666	0.302477
212	H	0.706361	0.238707	0.272948
213	H	0.78538	0.317183	0.271966
214	C	0.701143	0.232531	0.097612
215	H	0.725706	0.253842	0.126243
216	H	0.69156	0.1926	0.10104
217	H	0.665998	0.234505	0.10016
218	C	0.381732	0.563826	0.343019
219	N	0.408185	0.538108	0.342907
220	C	0.460538	0.564348	0.343237
221	N	0.486381	0.616701	0.343665
222	C	0.460241	0.642741	0.343733
223	N	0.408304	0.615772	0.343594
224	C	0.461462	0.822981	0.342995
225	N	0.487216	0.875153	0.342989
226	C	0.461005	0.901297	0.343237
227	N	0.408653	0.874823	0.343557
228	C	0.382582	0.822647	0.343563
229	N	0.409519	0.797647	0.343492
230	C	0.828127	0.376745	0.342863
231	N	0.880299	0.403208	0.34338
232	C	0.906387	0.455557	0.343927
233	N	0.879863	0.481386	0.344104
234	C	0.827679	0.455231	0.343594
235	N	0.802737	0.4033	0.343091
236	C	0.648619	0.456412	0.342649
237	N	0.622161	0.482126	0.343363
238	C	0.569815	0.455879	0.343954
239	N	0.543981	0.403526	0.344067
240	C	0.570118	0.377483	0.343363
241	N	0.622052	0.404466	0.342856
242	C	0.568856	0.197298	0.342812
243	N	0.543142	0.145125	0.343458
244	C	0.56939	0.119022	0.343971
245	N	0.621741	0.145532	0.34404
246	C	0.647777	0.197711	0.343438
247	N	0.620801	0.222669	0.342975
248	C	0.960534	0.482802	0.676733
249	C	0.987509	0.496202	0.635085
250	H	0.967097	0.485928	0.60531
251	C	0.988694	0.496942	0.384341
252	H	0.970096	0.487666	0.415014
253	C	0.54256	0.482779	0.676781
254	C	0.529142	0.49634	0.635133
255	C	0.501877	0.523481	0.633725
256	C	0.487852	0.537379	0.675363
257	C	0.501383	0.523772	0.383661
258	H	0.539429	0.486212	0.605361
259	C	0.528396	0.496777	0.384388
260	H	0.491627	0.533397	0.413963
261	H	0.537676	0.487463	0.415061
262	C	0.488546	0.536907	0.589006
263	H	0.501931	0.523692	0.560316
264	H	0.505946	0.578477	0.5862
265	H	0.44698	0.519414	0.586085
266	C	0.542498	0.064874	0.676788
267	C	0.528973	0.037903	0.63514
268	C	0.501859	0.983495	0.633732
269	C	0.487986	0.955575	0.67537
270	C	0.501566	0.982709	0.383667
271	H	0.539091	0.058319	0.605368
272	C	0.528518	0.036714	0.384395
273	H	0.49194	0.963325	0.413973
274	H	0.537815	0.055308	0.415072
275	C	0.488451	0.956742	0.589013
276	H	0.501663	0.983346	0.560323
277	H	0.446886	0.932558	0.5862
278	H	0.505964	0.932685	0.586095
279	C	0.327986	0.540349	0.343533
280	H	0.324419	0.545585	0.414735
281	H	0.321855	0.546149	0.605586
282	C	0.484868	0.792663	0.343686
283	C	0.484723	0.768875	0.385167
284	C	0.483446	0.721168	0.38664
285	C	0.483229	0.69649	0.345213
286	C	0.483555	0.720428	0.637014
287	H	0.480397	0.78417	0.414861
288	C	0.483852	0.767291	0.636306
289	H	0.477802	0.701239	0.606834
290	H	0.47829	0.780192	0.605763
291	C	0.478698	0.696049	0.431464
292	H	0.481806	0.720543	0.460104
293	H	0.509145	0.686608	0.43492
294	H	0.441647	0.660817	0.433957
295	C	0.328836	0.791923	0.345118
296	H	0.323862	0.781968	0.606718
297	C	0.329434	0.787634	0.431352
298	H	0.338842	0.827504	0.434896
299	H	0.364689	0.78585	0.433756
300	C	0.702331	0.479809	0.343179
301	C	0.726168	0.480001	0.384684
302	C	0.772555	0.478616	0.386208
303	C	0.796832	0.478148	0.34473
304	C	0.773167	0.47826	0.636548
305	H	0.706527	0.475616	0.414371
306	C	0.726711	0.478743	0.635824
307	H	0.786647	0.472455	0.606416
308	H	0.70811	0.472843	0.60532
309	C	0.792906	0.473944	0.431073
310	H	0.771576	0.477216	0.459678
311	H	0.832828	0.504327	0.434481
312	H	0.790973	0.436848	0.433678
313	C	0.545422	0.227613	0.343264
314	C	0.545336	0.251253	0.384773
315	C	0.546652	0.298995	0.386204
316	C	0.547182	0.323722	0.344699
317	C	0.547287	0.299986	0.636534
318	H	0.549489	0.235884	0.414493
319	C	0.546714	0.253	0.635834
320	H	0.553071	0.319196	0.606354
321	H	0.552538	0.240189	0.605351
322	C	0.551298	0.324096	0.431022
323	H	0.548058	0.299562	0.459672
324	H	0.520886	0.333596	0.434379
325	H	0.588373	0.359289	0.433586
326	C	0.797828	0.32303	0.343155
327	C	0.774031	0.29923	0.38464
328	C	0.726238	0.252859	0.386096
329	C	0.701523	0.228553	0.344601
330	C	0.725495	0.252204	0.636476
331	H	0.789244	0.318832	0.414357
332	C	0.77242	0.298666	0.63581
333	H	0.706361	0.238707	0.60628
334	H	0.78538	0.317183	0.6053
335	C	0.701143	0.232531	0.430944
336	H	0.725706	0.253842	0.459576
337	H	0.69156	0.1926	0.434372
338	H	0.665998	0.234505	0.433495
339	C	0.381732	0.563826	0.676353
340	N	0.408185	0.538108	0.67624
341	C	0.460538	0.564348	0.67657
342	N	0.486381	0.616701	0.676999
343	C	0.460241	0.642741	0.677067
344	N	0.408304	0.615772	0.676927
345	C	0.461462	0.822981	0.676329
346	N	0.487216	0.875153	0.676322
347	C	0.461005	0.901297	0.67657
348	N	0.408653	0.874823	0.67689
349	C	0.382582	0.822647	0.676897
350	N	0.409519	0.797647	0.676825
351	C	0.828127	0.376745	0.676196
352	N	0.880299	0.403208	0.676713
353	C	0.906387	0.455557	0.677261
354	N	0.879863	0.481386	0.677437
355	C	0.827679	0.455231	0.676927
356	N	0.802737	0.4033	0.676424
357	C	0.648619	0.456412	0.675982
358	N	0.622161	0.482126	0.676696
359	C	0.569815	0.455879	0.677288
360	N	0.543981	0.403526	0.6774
361	C	0.570118	0.377483	0.676696
362	N	0.622052	0.404466	0.676189
363	C	0.568856	0.197298	0.676145
364	N	0.543142	0.145125	0.676791
365	C	0.56939	0.119022	0.677305
366	N	0.621741	0.145532	0.677373
367	C	0.647777	0.197711	0.676771
368	N	0.620801	0.222669	0.676308
369	C	0.960534	0.482802	0.010067
370	C	0.987509	0.496202	0.968419
371	H	0.967097	0.485928	0.938644
372	C	0.988694	0.496942	0.717674
373	H	0.970096	0.487666	0.748347
374	C	0.54256	0.482779	0.010114
375	C	0.529142	0.49634	0.968466
376	C	0.501877	0.523481	0.967058
377	C	0.487852	0.537379	0.008696
378	C	0.501383	0.523772	0.716994
379	H	0.539429	0.486212	0.938695
380	C	0.528396	0.496777	0.717722
381	H	0.491627	0.533397	0.747296
382	H	0.537676	0.487463	0.748395
383	C	0.488546	0.536907	0.922339
384	H	0.501931	0.523692	0.893649
385	H	0.505946	0.578477	0.919534
386	H	0.44698	0.519414	0.919418
387	C	0.542498	0.064874	0.010121
388	C	0.528973	0.037903	0.968473
389	C	0.501859	0.983495	0.967065
390	C	0.487986	0.955575	0.008703
391	C	0.501566	0.982709	0.717001
392	H	0.539091	0.058319	0.938701
393	C	0.528518	0.036714	0.717728
394	H	0.49194	0.963325	0.747306
395	H	0.537815	0.055308	0.748405
396	C	0.488451	0.956742	0.922346
397	H	0.501663	0.983346	0.893656
398	H	0.446886	0.932558	0.919534
399	H	0.505964	0.932685	0.919428
400	C	0.327986	0.540349	0.676866
401	H	0.324419	0.545585	0.748068
402	H	0.321855	0.546149	0.938919
403	C	0.484868	0.792663	0.677019
404	C	0.484723	0.768875	0.7185
405	C	0.483446	0.721168	0.719973
406	C	0.483229	0.69649	0.678546
407	C	0.483555	0.720428	0.970347
408	H	0.480397	0.78417	0.748194
409	C	0.483852	0.767291	0.96964
410	H	0.477802	0.701239	0.940167
411	H	0.47829	0.780192	0.939096
412	C	0.478698	0.696049	0.764798
413	H	0.481806	0.720543	0.793437
414	H	0.509145	0.686608	0.768253
415	H	0.441647	0.660817	0.76729
416	C	0.328836	0.791923	0.678451
417	H	0.323862	0.781968	0.940052
418	C	0.329434	0.787634	0.764685
419	H	0.338842	0.827504	0.768229
420	H	0.364689	0.78585	0.76709
421	C	0.702331	0.479809	0.676512
422	C	0.726168	0.480001	0.718018
423	C	0.772555	0.478616	0.719541
424	C	0.796832	0.478148	0.678063
425	C	0.773167	0.47826	0.969881
426	H	0.706527	0.475616	0.747704
427	C	0.726711	0.478743	0.969157
428	H	0.786647	0.472455	0.939749
429	H	0.70811	0.472843	0.938654
430	C	0.792906	0.473944	0.764406
431	H	0.771576	0.477216	0.793012
432	H	0.832828	0.504327	0.767814
433	H	0.790973	0.436848	0.767012
434	C	0.545422	0.227613	0.676597
435	C	0.545336	0.251253	0.718106
436	C	0.546652	0.298995	0.719538
437	C	0.547182	0.323722	0.678033
438	C	0.547287	0.299986	0.969868
439	H	0.549489	0.235884	0.747827
440	C	0.546714	0.253	0.969167
441	H	0.553071	0.319196	0.939688
442	H	0.552538	0.240189	0.938684
443	C	0.551298	0.324096	0.764355
444	H	0.548058	0.299562	0.793005
445	H	0.520886	0.333596	0.767712
446	H	0.588373	0.359289	0.76692
447	C	0.797828	0.32303	0.676489
448	C	0.774031	0.29923	0.717973
449	C	0.726238	0.252859	0.719429
450	C	0.701523	0.228553	0.677934
451	C	0.725495	0.252204	0.96981
452	H	0.789244	0.318832	0.747691
453	C	0.77242	0.298666	0.969143
454	H	0.706361	0.238707	0.939613
455	H	0.78538	0.317183	0.938633
456	C	0.701143	0.232531	0.764277
457	H	0.725706	0.253842	0.79291
458	H	0.69156	0.1926	0.767705
459	H	0.665998	0.234505	0.766828
