data_C270H270N216_2018-02-15_10:44:55
#******************************************
#
# CIF file created by Zeo++
# Zeo++ is an open source package to
# analyze microporous materials
#
#*******************************************

_cell_length_a		47.5849   
_cell_length_b		47.5848   
_cell_length_c		29.342   
_cell_angle_alpha		90   
_cell_angle_beta		90   
_cell_angle_gamma		120   

_symmetry_space_group_name_H-M		'P1'
_symmetry_Int_Tables_number		1
_symmetry_cell_setting		Monoclinic

loop_
_symmetry_equiv_pos_as_xyz
'+x,+y,+z'

loop_
_atom_site_label
_atom_site_type_symbol
_atom_site_fract_x
_atom_site_fract_y
_atom_site_fract_z
1	C	0.141979	0.577149	0.007177
2	N	0.165914	0.609408	0.008622
3	C	0.198297	0.618962	0.008673
4	N	0.205652	0.594931	0.007773
5	C	0.183781	0.562958	0.00643
6	N	0.151721	0.554433	0.005824
7	C	0.196001	0.541383	0.004757
8	C	0.108914	0.568282	0.00716
9	C	0.226227	0.650233	0.0102
10	H	0.247756	0.650335	0.008015
11	H	0.10381	0.586154	0.007545
12	H	0.179992	0.517168	0.001329
13	C	0.051836	0.526857	0.340223
14	C	0.034207	0.51826	0.298239
15	C	0.034283	0.518684	0.048933
16	N	0.051256	0.523343	0.258542
17	H	0.074669	0.532759	0.258124
18	H	0.040857	0.514979	0.229472
19	N	0.051379	0.524108	0.088662
20	H	0.074765	0.533334	0.089015
21	H	0.040967	0.515833	0.117751
22	N	0.084647	0.538762	0.340184
23	N	0.231349	0.496245	0.315617
24	H	0.211172	0.496143	0.311262
25	H	0.230684	0.476551	0.306159
26	N	0.228384	0.552145	0.009378
27	N	0.227688	0.735087	0.320818
28	H	0.207495	0.714541	0.323454
29	H	0.22504	0.752739	0.310028
30	N	0.229664	0.680384	0.344666
31	C	0.141979	0.577149	0.340509
32	N	0.165914	0.609408	0.341953
33	C	0.198297	0.618962	0.342008
34	N	0.205652	0.594931	0.341105
35	C	0.183781	0.562958	0.339763
36	N	0.151721	0.554433	0.339157
37	C	0.196001	0.541383	0.338088
38	C	0.108914	0.568282	0.340491
39	C	0.226227	0.650233	0.343535
40	H	0.247756	0.650335	0.341347
41	H	0.10381	0.586154	0.340876
42	H	0.179992	0.517168	0.334662
43	C	0.051836	0.526857	0.673556
44	C	0.034207	0.51826	0.631572
45	C	0.034283	0.518684	0.382267
46	N	0.051256	0.523343	0.591875
47	H	0.074669	0.532759	0.591456
48	H	0.040857	0.514979	0.562804
49	N	0.051379	0.524108	0.421996
50	H	0.074765	0.533334	0.42235
51	H	0.040967	0.515833	0.451083
52	N	0.084647	0.538762	0.673519
53	N	0.231349	0.496245	0.64895
54	H	0.211172	0.496143	0.644594
55	H	0.230684	0.476551	0.639492
56	N	0.228384	0.552145	0.342713
57	N	0.227688	0.735087	0.654151
58	H	0.207495	0.714541	0.656788
59	H	0.22504	0.752739	0.643361
60	N	0.229664	0.680384	0.678
61	C	0.141979	0.577149	0.673843
62	N	0.165914	0.609408	0.675288
63	C	0.198297	0.618962	0.675339
64	N	0.205652	0.594931	0.674439
65	C	0.183781	0.562958	0.673096
66	N	0.151721	0.554433	0.67249
67	C	0.196001	0.541383	0.671423
68	C	0.108914	0.568282	0.673825
69	C	0.226227	0.650233	0.676865
70	H	0.247756	0.650335	0.674681
71	H	0.10381	0.586154	0.674211
72	H	0.179992	0.517168	0.667994
73	C	0.051836	0.526857	0.00689
74	C	0.034207	0.51826	0.964906
75	C	0.034283	0.518684	0.715602
76	N	0.051256	0.523343	0.925209
77	H	0.074669	0.532759	0.92479
78	H	0.040857	0.514979	0.896138
79	N	0.051379	0.524108	0.75533
80	H	0.074765	0.533334	0.755681
81	H	0.040967	0.515833	0.784418
82	N	0.084647	0.538762	0.006853
83	N	0.231349	0.496245	0.982284
84	H	0.211172	0.496143	0.977929
85	H	0.230684	0.476551	0.972827
86	N	0.228384	0.552145	0.676048
87	N	0.227688	0.735087	0.987485
88	H	0.207495	0.714541	0.990119
89	H	0.22504	0.752739	0.976695
90	N	0.229664	0.680384	0.011334
91	C	0.409099	0.584916	0.008721
92	C	0.377827	0.581572	0.010224
93	H	0.377725	0.603002	0.008046
94	N	0.41174	0.822426	0.007613
95	C	0.401633	0.844295	0.006355
96	C	0.367836	0.832072	0.004716
97	H	0.359623	0.848078	0.001339
98	C	0.256553	0.550859	0.010527
99	C	0.284778	0.579204	0.026568
100	C	0.313854	0.578231	0.034801
101	C	0.317675	0.552545	0.349724
102	C	0.289422	0.523877	0.334079
103	C	0.258649	0.522853	0.331714
104	N	0.335926	0.599151	0.065819
105	H	0.331468	0.613439	0.084119
106	H	0.351537	0.594159	0.079376
107	N	0.284202	0.607244	0.034692
108	H	0.265224	0.609022	0.02832
109	H	0.304023	0.627804	0.039253
110	N	0.292961	0.498189	0.320835
111	H	0.313504	0.498536	0.323475
112	H	0.275301	0.477883	0.310083
113	N	0.347674	0.554863	0.344683
114	H	0.414432	0.723724	0.084065
115	H	0.4002	0.681712	0.039848
116	C	0.31677	0.771513	0.010489
117	C	0.3169	0.743292	0.026521
118	C	0.286856	0.714211	0.034765
119	C	0.257342	0.710384	0.349707
120	C	0.256917	0.738635	0.334068
121	C	0.286662	0.769412	0.331706
122	N	0.285714	0.692139	0.065774
123	H	0.304466	0.696599	0.084062
124	H	0.265117	0.676526	0.079339
125	N	0.34552	0.743872	0.034628
126	H	0.366274	0.762855	0.028257
127	H	0.346265	0.724054	0.039183
128	N	0.287341	0.796714	0.315643
129	H	0.307412	0.816896	0.311293
130	H	0.268303	0.797383	0.306245
131	N	0.346221	0.799686	0.009334
132	C	0.409099	0.584916	0.342052
133	C	0.377827	0.581572	0.343558
134	H	0.377725	0.603002	0.341381
135	N	0.41174	0.822426	0.340948
136	C	0.401633	0.844295	0.339688
137	C	0.367836	0.832072	0.338048
138	H	0.359623	0.848078	0.334673
139	C	0.256553	0.550859	0.343858
140	C	0.284778	0.579204	0.3599
141	C	0.313854	0.578231	0.368134
142	C	0.317675	0.552545	0.683058
143	C	0.289422	0.523877	0.667411
144	C	0.258649	0.522853	0.665046
145	N	0.335926	0.599151	0.399151
146	H	0.331468	0.613439	0.417453
147	H	0.351537	0.594159	0.412708
148	N	0.284202	0.607244	0.368025
149	H	0.265224	0.609022	0.361655
150	H	0.304023	0.627804	0.372589
151	N	0.292961	0.498189	0.654168
152	H	0.313504	0.498536	0.656809
153	H	0.275301	0.477883	0.643415
154	N	0.347674	0.554863	0.678017
155	H	0.414432	0.723724	0.417398
156	H	0.4002	0.681712	0.373182
157	C	0.31677	0.771513	0.343824
158	C	0.3169	0.743292	0.359853
159	C	0.286856	0.714211	0.3681
160	C	0.257342	0.710384	0.683038
161	C	0.256917	0.738635	0.667401
162	C	0.286662	0.769412	0.665039
163	N	0.285714	0.692139	0.399107
164	H	0.304466	0.696599	0.417395
165	H	0.265117	0.676526	0.412674
166	N	0.34552	0.743872	0.36796
167	H	0.366274	0.762855	0.361591
168	H	0.346265	0.724054	0.372517
169	N	0.287341	0.796714	0.648977
170	H	0.307412	0.816896	0.644625
171	H	0.268303	0.797383	0.639578
172	N	0.346221	0.799686	0.342666
173	C	0.409099	0.584916	0.675386
174	C	0.377827	0.581572	0.676893
175	H	0.377725	0.603002	0.674712
176	N	0.41174	0.822426	0.674282
177	C	0.401633	0.844295	0.673021
178	C	0.367836	0.832072	0.671382
179	H	0.359623	0.848078	0.668008
180	C	0.256553	0.550859	0.677193
181	C	0.284778	0.579204	0.693235
182	C	0.313854	0.578231	0.701468
183	C	0.317675	0.552545	0.01639
184	C	0.289422	0.523877	0.000746
185	C	0.258649	0.522853	0.998381
186	N	0.335926	0.599151	0.732485
187	H	0.331468	0.613439	0.750787
188	H	0.351537	0.594159	0.746043
189	N	0.284202	0.607244	0.701359
190	H	0.265224	0.609022	0.694986
191	H	0.304023	0.627804	0.705919
192	N	0.292961	0.498189	0.987502
193	H	0.313504	0.498536	0.990143
194	H	0.275301	0.477883	0.976749
195	N	0.347674	0.554863	0.01135
196	H	0.414432	0.723724	0.750732
197	H	0.4002	0.681712	0.706516
198	C	0.31677	0.771513	0.677155
199	C	0.3169	0.743292	0.693187
200	C	0.286856	0.714211	0.701431
201	C	0.257342	0.710384	0.016372
202	C	0.256917	0.738635	0.000735
203	C	0.286662	0.769412	0.998374
204	N	0.285714	0.692139	0.732441
205	H	0.304466	0.696599	0.750729
206	H	0.265117	0.676526	0.746005
207	N	0.34552	0.743872	0.701295
208	H	0.366274	0.762855	0.694925
209	H	0.346265	0.724054	0.705851
210	N	0.287341	0.796714	0.982311
211	H	0.307412	0.816896	0.977959
212	H	0.268303	0.797383	0.972912
213	N	0.346221	0.799686	0.676
214	C	0.450933	0.570439	0.00719
215	N	0.418668	0.562099	0.008635
216	N	0.433123	0.616302	0.007835
217	C	0.465103	0.626426	0.006499
218	N	0.473643	0.602902	0.005868
219	C	0.486641	0.660234	0.004859
220	C	0.459805	0.546246	0.00716
221	H	0.441937	0.523268	0.007528
222	H	0.510872	0.66852	0.001427
223	C	0.457624	0.8861	0.007139
224	N	0.465953	0.862167	0.008523
225	C	0.443127	0.829784	0.008499
226	N	0.425166	0.876358	0.0058
227	C	0.48182	0.919166	0.007156
228	C	0.446463	0.801851	0.009951
229	H	0.425037	0.780327	0.007688
230	H	0.504796	0.924271	0.007565
231	C	0.546983	0.362209	0.004951
232	H	0.522764	0.353995	0.001543
233	H	0.528891	0.09818	0.007541
234	C	0.501236	0.530601	0.340273
235	C	0.509784	0.521533	0.298277
236	C	0.524223	0.501186	0.298296
237	C	0.532458	0.491853	0.006996
238	C	0.523896	0.500914	0.048989
239	C	0.50942	0.52123	0.048977
240	N	0.529623	0.489499	0.258563
241	H	0.521323	0.491603	0.229478
242	H	0.538887	0.475369	0.258211
243	N	0.504688	0.533474	0.258564
244	H	0.49537	0.547559	0.258184
245	H	0.513135	0.531504	0.229527
246	N	0.529022	0.488978	0.088684
247	H	0.538413	0.474959	0.089089
248	H	0.520703	0.491047	0.117772
249	N	0.503976	0.532899	0.088691
250	H	0.49461	0.546937	0.089076
251	H	0.512035	0.530609	0.117869
252	N	0.489329	0.551507	0.34022
253	N	0.544356	0.470941	0.006965
254	C	0.49747	0.976242	0.34021
255	C	0.506498	0.993876	0.298229
256	C	0.526815	0.028666	0.298257
257	C	0.536218	0.046211	0.006965
258	C	0.527205	0.028576	0.04895
259	C	0.506851	0.993789	0.048923
260	N	0.538426	0.045786	0.258532
261	H	0.536241	0.035415	0.229401
262	N	0.494533	0.976829	0.258529
263	H	0.480538	0.953417	0.258106
264	H	0.496567	0.987232	0.229462
265	N	0.539228	0.0456	0.088652
266	H	0.537244	0.03517	0.117685
267	N	0.495179	0.976688	0.088648
268	H	0.481017	0.953303	0.088997
269	H	0.497317	0.987096	0.11774
270	N	0.476564	0.943432	0.340161
271	C	0.477064	0.711214	0.010725
272	C	0.448756	0.71112	0.026869
273	C	0.449665	0.741171	0.034773
274	C	0.475388	0.770664	0.349703
275	C	0.50412	0.771074	0.334407
276	C	0.504975	0.741261	0.331503
277	N	0.428736	0.742416	0.06569
278	H	0.433726	0.763047	0.079136
279	N	0.42078	0.682493	0.03522
280	H	0.41902	0.66169	0.029339
281	N	0.530188	0.800414	0.322474
282	H	0.529967	0.820635	0.325616
283	N	0.531173	0.740431	0.313969
284	H	0.53096	0.720287	0.308839
285	H	0.549984	0.759239	0.301751
286	N	0.475785	0.68177	0.009569
287	N	0.473162	0.79839	0.344591
288	C	0.529496	0.251291	0.334304
289	C	0.528476	0.281043	0.331913
290	N	0.503801	0.222059	0.321097
291	H	0.504145	0.201863	0.323765
292	H	0.483461	0.219396	0.310466
293	N	0.501895	0.281742	0.315709
294	H	0.501805	0.30182	0.311325
295	H	0.482247	0.262725	0.306083
296	C	0.450933	0.570439	0.340525
297	N	0.418668	0.562099	0.341967
298	N	0.433123	0.616302	0.341166
299	C	0.465103	0.626426	0.339833
300	N	0.473643	0.602902	0.339202
301	C	0.486641	0.660234	0.338192
302	C	0.459805	0.546246	0.340493
303	H	0.441937	0.523268	0.340863
304	H	0.510872	0.66852	0.334762
305	C	0.457624	0.8861	0.340473
306	N	0.465953	0.862167	0.341854
307	C	0.443127	0.829784	0.341834
308	N	0.425166	0.876358	0.339133
309	C	0.48182	0.919166	0.340488
310	C	0.446463	0.801851	0.343282
311	H	0.425037	0.780327	0.341023
312	H	0.504796	0.924271	0.340897
313	C	0.546983	0.362209	0.338284
314	H	0.522764	0.353995	0.334877
315	H	0.528891	0.09818	0.340873
316	C	0.501236	0.530601	0.673607
317	C	0.509784	0.521533	0.63161
318	C	0.524223	0.501186	0.63163
319	C	0.532458	0.491853	0.340327
320	C	0.523896	0.500914	0.382322
321	C	0.50942	0.52123	0.382312
322	N	0.529623	0.489499	0.591895
323	H	0.521323	0.491603	0.562811
324	H	0.538887	0.475369	0.591544
325	N	0.504688	0.533474	0.591899
326	H	0.49537	0.547559	0.591517
327	H	0.513135	0.531504	0.562862
328	N	0.529022	0.488978	0.422019
329	H	0.538413	0.474959	0.422422
330	H	0.520703	0.491047	0.451104
331	N	0.503976	0.532899	0.422023
332	H	0.49461	0.546937	0.422408
333	H	0.512035	0.530609	0.451203
334	N	0.489329	0.551507	0.673553
335	N	0.544356	0.470941	0.340299
336	C	0.49747	0.976242	0.673543
337	C	0.506498	0.993876	0.631562
338	C	0.526815	0.028666	0.631589
339	C	0.536218	0.046211	0.340299
340	C	0.527205	0.028576	0.382285
341	C	0.506851	0.993789	0.382257
342	N	0.538426	0.045786	0.591865
343	H	0.536241	0.035415	0.562736
344	N	0.494533	0.976829	0.591861
345	H	0.480538	0.953417	0.591439
346	H	0.496567	0.987232	0.562794
347	N	0.539228	0.0456	0.421985
348	H	0.537244	0.03517	0.451019
349	N	0.495179	0.976688	0.421982
350	H	0.481017	0.953303	0.422329
351	H	0.497317	0.987096	0.451073
352	N	0.476564	0.943432	0.673495
353	C	0.477064	0.711214	0.344059
354	C	0.448756	0.71112	0.360204
355	C	0.449665	0.741171	0.368107
356	C	0.475388	0.770664	0.683034
357	C	0.50412	0.771074	0.667742
358	C	0.504975	0.741261	0.664838
359	N	0.428736	0.742416	0.399025
360	H	0.433726	0.763047	0.41247
361	N	0.42078	0.682493	0.368553
362	H	0.41902	0.66169	0.362671
363	N	0.530188	0.800414	0.655807
364	H	0.529967	0.820635	0.658949
365	N	0.531173	0.740431	0.647304
366	H	0.53096	0.720287	0.642175
367	H	0.549984	0.759239	0.635086
368	N	0.475785	0.68177	0.342901
369	N	0.473162	0.79839	0.677922
370	C	0.529496	0.251291	0.667636
371	C	0.528476	0.281043	0.665247
372	N	0.503801	0.222059	0.65443
373	H	0.504145	0.201863	0.657099
374	H	0.483461	0.219396	0.6438
375	N	0.501895	0.281742	0.649042
376	H	0.501805	0.30182	0.644659
377	H	0.482247	0.262725	0.639417
378	C	0.450933	0.570439	0.67386
379	N	0.418668	0.562099	0.675301
380	N	0.433123	0.616302	0.6745
381	C	0.465103	0.626426	0.673168
382	N	0.473643	0.602902	0.672534
383	C	0.486641	0.660234	0.671525
384	C	0.459805	0.546246	0.673825
385	H	0.441937	0.523268	0.674197
386	H	0.510872	0.66852	0.668096
387	C	0.457624	0.8861	0.673805
388	N	0.465953	0.862167	0.675189
389	C	0.443127	0.829784	0.675165
390	N	0.425166	0.876358	0.672466
391	C	0.48182	0.919166	0.673822
392	C	0.446463	0.801851	0.676617
393	H	0.425037	0.780327	0.674354
394	H	0.504796	0.924271	0.674231
395	C	0.546983	0.362209	0.671617
396	H	0.522764	0.353995	0.668209
397	H	0.528891	0.09818	0.674207
398	C	0.501236	0.530601	0.006942
399	C	0.509784	0.521533	0.964944
400	C	0.524223	0.501186	0.964964
401	C	0.532458	0.491853	0.673662
402	C	0.523896	0.500914	0.715656
403	C	0.50942	0.52123	0.715646
404	N	0.529623	0.489499	0.925229
405	H	0.521323	0.491603	0.896145
406	H	0.538887	0.475369	0.924878
407	N	0.504688	0.533474	0.925229
408	H	0.49537	0.547559	0.924851
409	H	0.513135	0.531504	0.896196
410	N	0.529022	0.488978	0.75535
411	H	0.538413	0.474959	0.755756
412	H	0.520703	0.491047	0.784438
413	N	0.503976	0.532899	0.755357
414	H	0.49461	0.546937	0.755742
415	H	0.512035	0.530609	0.784537
416	N	0.489329	0.551507	0.006887
417	N	0.544356	0.470941	0.673631
418	C	0.49747	0.976242	0.006877
419	C	0.506498	0.993876	0.964896
420	C	0.526815	0.028666	0.964923
421	C	0.536218	0.046211	0.673635
422	C	0.527205	0.028576	0.715615
423	C	0.506851	0.993789	0.715592
424	N	0.538426	0.045786	0.925199
425	H	0.536241	0.035415	0.896066
426	N	0.494533	0.976829	0.925195
427	H	0.480538	0.953417	0.924773
428	H	0.496567	0.987232	0.896128
429	N	0.539228	0.0456	0.75532
430	H	0.537244	0.03517	0.784353
431	N	0.495179	0.976688	0.755316
432	H	0.481017	0.953303	0.755664
433	H	0.497317	0.987096	0.784408
434	N	0.476564	0.943432	0.006829
435	C	0.477064	0.711214	0.67739
436	C	0.448756	0.71112	0.693538
437	C	0.449665	0.741171	0.701441
438	C	0.475388	0.770664	0.016368
439	C	0.50412	0.771074	0.001073
440	C	0.504975	0.741261	0.998169
441	N	0.428736	0.742416	0.732356
442	H	0.433726	0.763047	0.745804
443	N	0.42078	0.682493	0.701888
444	H	0.41902	0.66169	0.696005
445	N	0.530188	0.800414	0.989141
446	H	0.529967	0.820635	0.992283
447	N	0.531173	0.740431	0.980635
448	H	0.53096	0.720287	0.975505
449	H	0.549984	0.759239	0.968417
450	N	0.475785	0.68177	0.676235
451	N	0.473162	0.79839	0.011256
452	C	0.529496	0.251291	0.000971
453	C	0.528476	0.281043	0.998582
454	N	0.503801	0.222059	0.987764
455	H	0.504145	0.201863	0.990433
456	H	0.483461	0.219396	0.977135
457	N	0.501895	0.281742	0.982376
458	H	0.501805	0.30182	0.977993
459	H	0.482247	0.262725	0.972752
460	H	0.551081	0.80319	0.314432
461	H	0.551081	0.80319	0.647764
462	H	0.551081	0.80319	0.981098
463	C	0.891727	0.445337	0.007327
464	N	0.867803	0.413071	0.008748
465	C	0.835417	0.4035	0.008823
466	N	0.828053	0.427524	0.007971
467	C	0.849906	0.459504	0.006676
468	N	0.881972	0.468046	0.006035
469	C	0.837632	0.481038	0.005071
470	C	0.92479	0.454209	0.007259
471	C	0.807487	0.372228	0.010305
472	H	0.785959	0.372131	0.008087
473	H	0.9299	0.436342	0.007579
474	H	0.853572	0.505272	0.001645
475	C	0.582744	0.451998	0.007306
476	N	0.615005	0.460327	0.008717
477	C	0.624563	0.437499	0.008741
478	N	0.600532	0.406111	0.007872
479	C	0.568557	0.396007	0.006584
480	N	0.56003	0.41954	0.005984
481	C	0.573879	0.476197	0.007282
482	C	0.655831	0.440836	0.01022
483	H	0.655928	0.419407	0.007998
484	H	0.591749	0.499172	0.007668
485	C	0.576064	0.136352	0.007344
486	N	0.567724	0.160278	0.008813
487	C	0.590543	0.192664	0.008952
488	N	0.62193	0.200025	0.00809
489	C	0.632052	0.178168	0.006727
490	N	0.608527	0.146105	0.006045
491	C	0.665859	0.190436	0.005094
492	C	0.55187	0.103288	0.007248
493	C	0.587199	0.220592	0.010483
494	H	0.60863	0.242124	0.008349
495	H	0.674145	0.174494	0.001628
496	C	0.999415	0.503785	0.29826
497	C	0.981866	0.495636	0.006969
498	C	0.999495	0.504253	0.048954
499	N	0.982298	0.498279	0.258533
500	H	0.992672	0.506469	0.229404
501	H	0.958903	0.488992	0.258196
502	N	0.982468	0.499245	0.088653
503	H	0.959064	0.489895	0.089076
504	H	0.992895	0.507687	0.117689
505	N	0.949055	0.483734	0.006979
506	H	0.552537	0.069182	0.2582
507	H	0.553278	0.069004	0.089079
508	N	0.557127	0.079022	0.006989
509	C	0.777076	0.471457	0.01099
510	C	0.748874	0.443158	0.027183
511	C	0.719725	0.444063	0.035071
512	C	0.715945	0.469771	0.349962
513	C	0.744261	0.4985	0.334649
514	C	0.77493	0.499356	0.331732
515	N	0.697558	0.423153	0.066008
516	H	0.701952	0.408863	0.084409
517	H	0.681915	0.428147	0.079438
518	N	0.749539	0.415196	0.035595
519	H	0.76859	0.413442	0.029748
520	H	0.729748	0.394616	0.040256
521	N	0.740989	0.524566	0.322718
522	H	0.72055	0.524348	0.325873
523	H	0.759112	0.545467	0.314716
524	N	0.801941	0.525537	0.314134
525	H	0.82187	0.525323	0.308994
526	H	0.801919	0.544319	0.301838
527	N	0.805241	0.470176	0.009811
528	N	0.685989	0.467536	0.344837
529	C	0.556466	0.311141	0.010776
530	C	0.584799	0.31126	0.026871
531	C	0.583832	0.281211	0.035081
532	C	0.558164	0.25171	0.349962
533	N	0.60473	0.280044	0.066124
534	H	0.619001	0.298779	0.084453
535	H	0.599734	0.259434	0.079664
536	N	0.612824	0.339877	0.035063
537	H	0.614596	0.360636	0.028735
538	H	0.633385	0.340624	0.039658
539	N	0.557752	0.340595	0.009607
540	N	0.560488	0.224033	0.344912
541	C	0.716845	0.250987	0.011018
542	C	0.716759	0.279189	0.027234
543	C	0.746816	0.308328	0.035126
544	C	0.776298	0.312111	0.34999
545	C	0.776697	0.283795	0.334638
546	C	0.746883	0.25313	0.331726
547	N	0.748084	0.330488	0.06609
548	H	0.729406	0.326091	0.084503
549	H	0.768725	0.346123	0.079518
550	N	0.688136	0.278529	0.035668
551	H	0.667329	0.259485	0.029812
552	H	0.687355	0.298323	0.040348
553	N	0.806031	0.287066	0.322667
554	H	0.826256	0.307506	0.325817
555	H	0.808803	0.268947	0.314622
556	N	0.746041	0.226117	0.314109
557	H	0.725896	0.206191	0.308975
558	H	0.764841	0.226134	0.301809
559	N	0.687395	0.222824	0.009845
560	N	0.804023	0.342065	0.344874
561	C	0.891727	0.445337	0.340661
562	N	0.867803	0.413071	0.342083
563	C	0.835417	0.4035	0.342158
564	N	0.828053	0.427524	0.341302
565	C	0.849906	0.459504	0.340007
566	N	0.881972	0.468046	0.339367
567	C	0.837632	0.481038	0.338402
568	C	0.92479	0.454209	0.340593
569	C	0.807487	0.372228	0.343637
570	H	0.785959	0.372131	0.341418
571	H	0.9299	0.436342	0.34091
572	H	0.853572	0.505272	0.33498
573	C	0.582744	0.451998	0.34064
574	N	0.615005	0.460327	0.342049
575	C	0.624563	0.437499	0.342073
576	N	0.600532	0.406111	0.341204
577	C	0.568557	0.396007	0.339917
578	N	0.56003	0.41954	0.339317
579	C	0.573879	0.476197	0.340615
580	C	0.655831	0.440836	0.343555
581	H	0.655928	0.419407	0.341333
582	H	0.591749	0.499172	0.341002
583	C	0.576064	0.136352	0.340678
584	N	0.567724	0.160278	0.342144
585	C	0.590543	0.192664	0.342284
586	N	0.62193	0.200025	0.341422
587	C	0.632052	0.178168	0.340061
588	N	0.608527	0.146105	0.339377
589	C	0.665859	0.190436	0.338429
590	C	0.55187	0.103288	0.340579
591	C	0.587199	0.220592	0.343814
592	H	0.60863	0.242124	0.341681
593	H	0.674145	0.174494	0.33496
594	C	0.999415	0.503785	0.631593
595	C	0.981866	0.495636	0.3403
596	C	0.999495	0.504253	0.382288
597	N	0.982298	0.498279	0.591865
598	H	0.992672	0.506469	0.562739
599	H	0.958903	0.488992	0.591531
600	N	0.982468	0.499245	0.421985
601	H	0.959064	0.489895	0.422408
602	H	0.992895	0.507687	0.451022
603	N	0.949055	0.483734	0.340313
604	H	0.552537	0.069182	0.591534
605	H	0.553278	0.069004	0.422411
606	N	0.557127	0.079022	0.340322
607	C	0.777076	0.471457	0.344325
608	C	0.748874	0.443158	0.360517
609	C	0.719725	0.444063	0.368403
610	C	0.715945	0.469771	0.683297
611	C	0.744261	0.4985	0.667981
612	C	0.77493	0.499356	0.665067
613	N	0.697558	0.423153	0.399342
614	H	0.701952	0.408863	0.417742
615	H	0.681915	0.428147	0.41277
616	N	0.749539	0.415196	0.368928
617	H	0.76859	0.413442	0.363083
618	H	0.729748	0.394616	0.373591
619	N	0.740989	0.524566	0.656052
620	H	0.72055	0.524348	0.659208
621	H	0.759112	0.545467	0.64805
622	N	0.801941	0.525537	0.647467
623	H	0.82187	0.525323	0.642328
624	H	0.801919	0.544319	0.635171
625	N	0.805241	0.470176	0.343143
626	N	0.685989	0.467536	0.678171
627	C	0.556466	0.311141	0.344107
628	C	0.584799	0.31126	0.360204
629	C	0.583832	0.281211	0.368414
630	C	0.558164	0.25171	0.683297
631	N	0.60473	0.280044	0.399458
632	H	0.619001	0.298779	0.417787
633	H	0.599734	0.259434	0.412998
634	N	0.612824	0.339877	0.368397
635	H	0.614596	0.360636	0.362068
636	H	0.633385	0.340624	0.372991
637	N	0.557752	0.340595	0.342938
638	N	0.560488	0.224033	0.678246
639	C	0.716845	0.250987	0.344349
640	C	0.716759	0.279189	0.360568
641	C	0.746816	0.308328	0.368458
642	C	0.776298	0.312111	0.683324
643	C	0.776697	0.283795	0.66797
644	C	0.746883	0.25313	0.66506
645	N	0.748084	0.330488	0.399424
646	H	0.729406	0.326091	0.417838
647	H	0.768725	0.346123	0.412852
648	N	0.688136	0.278529	0.369
649	H	0.667329	0.259485	0.363145
650	H	0.687355	0.298323	0.373683
651	N	0.806031	0.287066	0.656001
652	H	0.826256	0.307506	0.65915
653	H	0.808803	0.268947	0.647955
654	N	0.746041	0.226117	0.647444
655	H	0.725896	0.206191	0.642308
656	H	0.764841	0.226134	0.635144
657	N	0.687395	0.222824	0.343177
658	N	0.804023	0.342065	0.678208
659	C	0.891727	0.445337	0.673996
660	N	0.867803	0.413071	0.675414
661	C	0.835417	0.4035	0.675489
662	N	0.828053	0.427524	0.674637
663	C	0.849906	0.459504	0.673342
664	N	0.881972	0.468046	0.672701
665	C	0.837632	0.481038	0.671736
666	C	0.92479	0.454209	0.673928
667	C	0.807487	0.372228	0.676971
668	H	0.785959	0.372131	0.674752
669	H	0.9299	0.436342	0.674245
670	H	0.853572	0.505272	0.668315
671	C	0.582744	0.451998	0.673972
672	N	0.615005	0.460327	0.675383
673	C	0.624563	0.437499	0.675407
674	N	0.600532	0.406111	0.674538
675	C	0.568557	0.396007	0.67325
676	N	0.56003	0.41954	0.67265
677	C	0.573879	0.476197	0.673948
678	C	0.655831	0.440836	0.676886
679	H	0.655928	0.419407	0.674667
680	H	0.591749	0.499172	0.674333
681	C	0.576064	0.136352	0.674013
682	N	0.567724	0.160278	0.675478
683	C	0.590543	0.192664	0.675618
684	N	0.62193	0.200025	0.674756
685	C	0.632052	0.178168	0.673393
686	N	0.608527	0.146105	0.672711
687	C	0.665859	0.190436	0.671764
688	C	0.55187	0.103288	0.673914
689	C	0.587199	0.220592	0.677148
690	H	0.60863	0.242124	0.675015
691	H	0.674145	0.174494	0.668294
692	C	0.999415	0.503785	0.964927
693	C	0.981866	0.495636	0.673635
694	C	0.999495	0.504253	0.715622
695	N	0.982298	0.498279	0.925199
696	H	0.992672	0.506469	0.89607
697	H	0.958903	0.488992	0.924865
698	N	0.982468	0.499245	0.75532
699	H	0.959064	0.489895	0.755742
700	H	0.992895	0.507687	0.784356
701	N	0.949055	0.483734	0.673648
702	H	0.552537	0.069182	0.924868
703	H	0.553278	0.069004	0.755746
704	N	0.557127	0.079022	0.673655
705	C	0.777076	0.471457	0.67766
706	C	0.748874	0.443158	0.693851
707	C	0.719725	0.444063	0.701738
708	C	0.715945	0.469771	0.016629
709	C	0.744261	0.4985	0.001315
710	C	0.77493	0.499356	0.998398
711	N	0.697558	0.423153	0.732676
712	H	0.701952	0.408863	0.751076
713	H	0.681915	0.428147	0.746104
714	N	0.749539	0.415196	0.702263
715	H	0.76859	0.413442	0.696414
716	H	0.729748	0.394616	0.706925
717	N	0.740989	0.524566	0.989387
718	H	0.72055	0.524348	0.992539
719	H	0.759112	0.545467	0.981384
720	N	0.801941	0.525537	0.980802
721	H	0.82187	0.525323	0.975662
722	H	0.801919	0.544319	0.968505
723	N	0.805241	0.470176	0.676477
724	N	0.685989	0.467536	0.011503
725	C	0.556466	0.311141	0.677441
726	C	0.584799	0.31126	0.693538
727	C	0.583832	0.281211	0.701748
728	C	0.558164	0.25171	0.016629
729	N	0.60473	0.280044	0.732792
730	H	0.619001	0.298779	0.751121
731	H	0.599734	0.259434	0.746332
732	N	0.612824	0.339877	0.701731
733	H	0.614596	0.360636	0.695402
734	H	0.633385	0.340624	0.706325
735	N	0.557752	0.340595	0.676272
736	N	0.560488	0.224033	0.011577
737	C	0.716845	0.250987	0.677683
738	C	0.716759	0.279189	0.693902
739	C	0.746816	0.308328	0.701792
740	C	0.776298	0.312111	0.016656
741	C	0.776697	0.283795	0.001305
742	C	0.746883	0.25313	0.998394
743	N	0.748084	0.330488	0.732758
744	H	0.729406	0.326091	0.751172
745	H	0.768725	0.346123	0.746186
746	N	0.688136	0.278529	0.702334
747	H	0.667329	0.259485	0.696479
748	H	0.687355	0.298323	0.707017
749	N	0.806031	0.287066	0.989335
750	H	0.826256	0.307506	0.992485
751	H	0.808803	0.268947	0.981289
752	N	0.746041	0.226117	0.980778
753	H	0.725896	0.206191	0.975642
754	H	0.764841	0.226134	0.968478
755	N	0.687395	0.222824	0.676511
756	N	0.804023	0.342065	0.011541
