data_C324H198N18O36_2018-02-15_10:39:10
#******************************************
#
# CIF file created by Zeo++
# Zeo++ is an open source package to
# analyze microporous materials
#
#*******************************************

_cell_length_a		34.5121   
_cell_length_b		34.5227   
_cell_length_c		29.7254   
_cell_angle_alpha		90   
_cell_angle_beta		90   
_cell_angle_gamma		119.993   

_symmetry_space_group_name_H-M		'P1'
_symmetry_Int_Tables_number		1
_symmetry_cell_setting		Monoclinic

loop_
_symmetry_equiv_pos_as_xyz
'+x,+y,+z'

loop_
_atom_site_label
_atom_site_type_symbol
_atom_site_fract_x
_atom_site_fract_y
_atom_site_fract_z
1	C	0.051426	0.027672	0.00408
2	C	0.025977	0.049613	0.004137
3	C	0.978554	0.025823	0.004107
4	C	0.956612	0.978444	0.004137
5	C	0.980415	0.954825	0.00409
6	C	0.027806	0.98026	0.004134
7	H	0.922371	0.960658	0.003871
8	H	0.045606	0.963822	0.003855
9	H	0.042421	0.083845	0.003875
10	C	0.460196	0.19555	0.006182
11	C	0.483314	0.242691	0.007837
12	C	0.460387	0.266932	0.00859
13	C	0.41315	0.243223	0.006539
14	C	0.38896	0.195792	0.005733
15	C	0.412885	0.172255	0.006134
16	H	0.396282	0.260622	0.006822
17	H	0.395848	0.138023	0.004884
18	H	0.517658	0.259788	0.008744
19	C	0.810904	0.266912	0.006156
20	C	0.763747	0.242883	0.007855
21	C	0.739509	0.195728	0.008626
22	C	0.763233	0.172217	0.006548
23	C	0.810677	0.195464	0.005695
24	C	0.834215	0.242913	0.006079
25	H	0.745833	0.137959	0.006853
26	H	0.868456	0.260112	0.004802
27	H	0.74664	0.260116	0.008794
28	C	0.7395	0.546161	0.006189
29	C	0.763548	0.523057	0.007819
30	C	0.810719	0.545977	0.008555
31	C	0.834226	0.593202	0.006507
32	C	0.81096	0.617379	0.005716
33	C	0.763499	0.593459	0.006131
34	H	0.868494	0.610061	0.006748
35	H	0.746283	0.610486	0.004932
36	H	0.746316	0.488722	0.008734
37	C	0.341346	0.172342	0.337001
38	C	0.319187	0.171284	0.296842
39	C	0.271805	0.147628	0.293567
40	C	0.245058	0.125836	0.332205
41	C	0.267779	0.125306	0.038883
42	C	0.315105	0.148344	0.04094
43	H	0.330713	0.148086	0.070154
44	C	0.19635	0.101312	0.332394
45	C	0.170019	0.113188	0.305371
46	C	0.122931	0.089221	0.306939
47	C	0.099524	0.052486	0.336303
48	C	0.125503	0.041834	0.031802
49	C	0.17293	0.066073	0.030716
50	H	0.184668	0.14072	0.285166
51	H	0.10578	0.098825	0.285907
52	H	0.109652	0.01663	0.054804
53	H	0.337819	0.186689	0.268793
54	C	0.198978	0.055831	0.063792
55	C	0.241339	0.099448	0.078812
56	H	0.208837	0.033488	0.047902
57	H	0.179089	0.038969	0.093608
58	H	0.260949	0.090642	0.10112
59	H	0.231442	0.120205	0.097904
60	N	0.251863	0.143187	0.250798
61	O	0.262031	0.180493	0.233916
62	O	0.262508	0.122189	0.223588
63	C	0.834128	0.171303	0.336964
64	C	0.835193	0.150215	0.296801
65	C	0.858785	0.126428	0.293552
66	C	0.880511	0.121406	0.332211
67	C	0.881081	0.144686	0.038877
68	C	0.858088	0.169015	0.040918
69	H	0.858346	0.184875	0.070132
70	C	0.904987	0.097175	0.332425
71	C	0.893056	0.058949	0.305426
72	C	0.917008	0.035815	0.306976
73	C	0.953739	0.049105	0.336351
74	C	0.964413	0.08572	0.031863
75	C	0.940214	0.108946	0.030766
76	H	0.865556	0.046133	0.285171
77	H	0.907389	0.009075	0.285931
78	H	0.989629	0.095064	0.054856
79	H	0.819788	0.153445	0.268751
80	C	0.950502	0.145246	0.063829
81	C	0.906903	0.144059	0.078824
82	H	0.972893	0.177427	0.047936
83	H	0.967341	0.142196	0.093655
84	H	0.915741	0.172476	0.101129
85	H	0.886095	0.113421	0.097912
86	N	0.86321	0.110895	0.250797
87	O	0.825883	0.08381	0.233902
88	O	0.884271	0.142514	0.223585
89	C	0.835117	0.664982	0.336988
90	C	0.856189	0.687136	0.29682
91	C	0.87996	0.734504	0.293561
92	C	0.884954	0.761244	0.332213
93	C	0.86165	0.738531	0.038869
94	C	0.837357	0.69122	0.040925
95	H	0.821479	0.675621	0.070133
96	C	0.909136	0.80994	0.3324
97	C	0.947377	0.836252	0.30542
98	C	0.970473	0.883326	0.306958
99	C	0.957137	0.906737	0.336318
100	C	0.920488	0.880777	0.031797
101	C	0.897309	0.833362	0.03072
102	H	0.960238	0.821599	0.285181
103	H	0.997239	0.900463	0.285937
104	H	0.911136	0.896627	0.054805
105	H	0.853004	0.66851	0.26878
106	C	0.860995	0.807335	0.063775
107	C	0.86223	0.764966	0.0788
108	H	0.828802	0.797505	0.047867
109	H	0.864012	0.827218	0.093591
110	H	0.833803	0.745378	0.101098
111	H	0.892878	0.774836	0.097901
112	N	0.895505	0.754455	0.250808
113	O	0.922626	0.74424	0.233937
114	O	0.863885	0.743869	0.223578
115	C	0.48623	0.17416	0.005165
116	C	0.494245	0.157259	0.045019
117	C	0.530176	0.14849	0.04841
118	C	0.55957	0.157433	0.011083
119	C	0.547975	0.169511	0.302665
120	C	0.512828	0.179222	0.300564
121	H	0.507825	0.192094	0.271495
122	C	0.601529	0.157212	0.013126
123	C	0.628549	0.170362	0.052368
124	C	0.67271	0.17845	0.051857
125	C	0.692176	0.174324	0.01176
126	C	0.666072	0.161489	0.305561
127	C	0.62151	0.153248	0.305936
128	H	0.61861	0.179312	0.080883
129	H	0.691948	0.191514	0.0801
130	H	0.680837	0.161812	0.275565
131	H	0.47544	0.153776	0.072996
132	C	0.596759	0.145785	0.262912
133	C	0.574886	0.1755	0.261318
134	H	0.570668	0.110579	0.261146
135	H	0.61835	0.153042	0.233499
136	H	0.553775	0.166357	0.231305
137	H	0.600726	0.210713	0.258382
138	N	0.535862	0.130029	0.088761
139	O	0.541229	0.154427	0.122347
140	O	0.50303	0.091822	0.09619
141	C	0.832287	0.314323	0.005123
142	C	0.849204	0.339252	0.044966
143	C	0.857921	0.383925	0.048347
144	C	0.848964	0.404343	0.011005
145	C	0.83695	0.380687	0.302583
146	C	0.827204	0.33583	0.300514
147	H	0.814375	0.317957	0.271438
148	C	0.849222	0.446528	0.012981
149	C	0.836034	0.460397	0.052206
150	C	0.827982	0.496485	0.051691
151	C	0.832153	0.52006	0.011569
152	C	0.844953	0.506766	0.305381
153	C	0.85324	0.470491	0.305796
154	H	0.827054	0.441511	0.080721
155	H	0.814919	0.502672	0.079932
156	H	0.844691	0.521261	0.2754
157	H	0.852642	0.323934	0.072965
158	C	0.860679	0.453156	0.262792
159	C	0.830946	0.401577	0.261224
160	H	0.895893	0.46226	0.261023
161	H	0.853419	0.467471	0.233366
162	H	0.840076	0.389594	0.231217
163	H	0.795723	0.392212	0.258298
164	N	0.876347	0.408072	0.088701
165	O	0.851928	0.389038	0.122275
166	O	0.914574	0.413484	0.096163
167	C	0.692068	0.520134	0.005223
168	C	0.667115	0.512127	0.045045
169	C	0.62242	0.4762	0.048391
170	C	0.602029	0.446815	0.011052
171	C	0.625734	0.458427	0.30265
172	C	0.670597	0.493548	0.300598
173	H	0.688494	0.498598	0.271531
174	C	0.559868	0.404865	0.013027
175	C	0.546015	0.377804	0.05225
176	C	0.509891	0.333695	0.051769
177	C	0.486324	0.314263	0.011658
178	C	0.499689	0.340302	0.305434
179	C	0.535951	0.384871	0.305827
180	H	0.564802	0.387838	0.080829
181	H	0.503634	0.314518	0.080072
182	H	0.485166	0.325571	0.275452
183	H	0.682417	0.530943	0.073017
184	C	0.553257	0.409647	0.26283
185	C	0.60486	0.431557	0.261275
186	H	0.544105	0.435718	0.261065
187	H	0.538966	0.388079	0.233403
188	H	0.616828	0.452691	0.231285
189	H	0.614278	0.405744	0.258319
190	N	0.598215	0.470518	0.088702
191	O	0.617216	0.465167	0.122331
192	O	0.592801	0.503334	0.096083
193	C	0.051426	0.027672	0.337415
194	C	0.025977	0.049613	0.337469
195	C	0.978554	0.025823	0.337438
196	C	0.956612	0.978444	0.337469
197	C	0.980415	0.954825	0.337425
198	C	0.027806	0.98026	0.337465
199	H	0.922371	0.960658	0.337203
200	H	0.045606	0.963822	0.33719
201	H	0.042421	0.083845	0.337206
202	C	0.460196	0.19555	0.339514
203	C	0.483314	0.242691	0.341169
204	C	0.460387	0.266932	0.341923
205	C	0.41315	0.243223	0.339874
206	C	0.38896	0.195792	0.339067
207	C	0.412885	0.172255	0.339467
208	H	0.396282	0.260622	0.340157
209	H	0.395848	0.138023	0.338219
210	H	0.517658	0.259788	0.342078
211	C	0.810904	0.266912	0.339491
212	C	0.763747	0.242883	0.341189
213	C	0.739509	0.195728	0.34196
214	C	0.763233	0.172217	0.339881
215	C	0.810677	0.195464	0.33903
216	C	0.834215	0.242913	0.339413
217	H	0.745833	0.137959	0.340187
218	H	0.868456	0.260112	0.338135
219	H	0.74664	0.260116	0.342128
220	C	0.7395	0.546161	0.339521
221	C	0.763548	0.523057	0.341152
222	C	0.810719	0.545977	0.341889
223	C	0.834226	0.593202	0.33984
224	C	0.81096	0.617379	0.33905
225	C	0.763499	0.593459	0.339464
226	H	0.868494	0.610061	0.340083
227	H	0.746283	0.610486	0.338266
228	H	0.746316	0.488722	0.342068
229	C	0.341346	0.172342	0.670335
230	C	0.319187	0.171284	0.630174
231	C	0.271805	0.147628	0.626901
232	C	0.245058	0.125836	0.665538
233	C	0.267779	0.125306	0.372217
234	C	0.315105	0.148344	0.374272
235	H	0.330713	0.148086	0.403486
236	C	0.19635	0.101312	0.665727
237	C	0.170019	0.113188	0.638703
238	C	0.122931	0.089221	0.640274
239	C	0.099524	0.052486	0.669636
240	C	0.125503	0.041834	0.365135
241	C	0.17293	0.066073	0.364049
242	H	0.184668	0.14072	0.618501
243	H	0.10578	0.098825	0.619241
244	H	0.109652	0.01663	0.388139
245	H	0.337819	0.186689	0.602128
246	C	0.198978	0.055831	0.397125
247	C	0.241339	0.099448	0.412146
248	H	0.208837	0.033488	0.381236
249	H	0.179089	0.038969	0.426941
250	H	0.260949	0.090642	0.434453
251	H	0.231442	0.120205	0.431237
252	N	0.251863	0.143187	0.584133
253	O	0.262031	0.180493	0.567249
254	O	0.262508	0.122189	0.556921
255	C	0.834128	0.171303	0.670298
256	C	0.835193	0.150215	0.630134
257	C	0.858785	0.126428	0.626884
258	C	0.880511	0.121406	0.665545
259	C	0.881081	0.144686	0.37221
260	C	0.858088	0.169015	0.374252
261	H	0.858346	0.184875	0.403466
262	C	0.904987	0.097175	0.66576
263	C	0.893056	0.058949	0.63876
264	C	0.917008	0.035815	0.640311
265	C	0.953739	0.049105	0.669683
266	C	0.964413	0.08572	0.365196
267	C	0.940214	0.108946	0.364099
268	H	0.865556	0.046133	0.618504
269	H	0.907389	0.009075	0.619265
270	H	0.989629	0.095064	0.38819
271	H	0.819788	0.153445	0.602084
272	C	0.950502	0.145246	0.397162
273	C	0.906903	0.144059	0.412159
274	H	0.972893	0.177427	0.38127
275	H	0.967341	0.142196	0.426988
276	H	0.915741	0.172476	0.434463
277	H	0.886095	0.113421	0.431247
278	N	0.86321	0.110895	0.58413
279	O	0.825883	0.08381	0.567235
280	O	0.884271	0.142514	0.556917
281	C	0.835117	0.664982	0.670322
282	C	0.856189	0.687136	0.630154
283	C	0.87996	0.734504	0.626894
284	C	0.884954	0.761244	0.665548
285	C	0.86165	0.738531	0.372203
286	C	0.837357	0.69122	0.374259
287	H	0.821479	0.675621	0.403466
288	C	0.909136	0.80994	0.665733
289	C	0.947377	0.836252	0.638753
290	C	0.970473	0.883326	0.64029
291	C	0.957137	0.906737	0.669652
292	C	0.920488	0.880777	0.365132
293	C	0.897309	0.833362	0.364052
294	H	0.960238	0.821599	0.618514
295	H	0.997239	0.900463	0.619271
296	H	0.911136	0.896627	0.388139
297	H	0.853004	0.66851	0.602114
298	C	0.860995	0.807335	0.397108
299	C	0.86223	0.764966	0.412132
300	H	0.828802	0.797505	0.381199
301	H	0.864012	0.827218	0.426924
302	H	0.833803	0.745378	0.434433
303	H	0.892878	0.774836	0.431234
304	N	0.895505	0.754455	0.58414
305	O	0.922626	0.74424	0.567272
306	O	0.863885	0.743869	0.556911
307	C	0.48623	0.17416	0.338498
308	C	0.494245	0.157259	0.378353
309	C	0.530176	0.14849	0.381744
310	C	0.55957	0.157433	0.344416
311	C	0.547975	0.169511	0.635998
312	C	0.512828	0.179222	0.633899
313	H	0.507825	0.192094	0.604829
314	C	0.601529	0.157212	0.346461
315	C	0.628549	0.170362	0.3857
316	C	0.67271	0.17845	0.385192
317	C	0.692176	0.174324	0.345092
318	C	0.666072	0.161489	0.638894
319	C	0.62151	0.153248	0.639268
320	H	0.61861	0.179312	0.414218
321	H	0.691948	0.191514	0.413434
322	H	0.680837	0.161812	0.6089
323	H	0.47544	0.153776	0.406329
324	C	0.596759	0.145785	0.596247
325	C	0.574886	0.1755	0.594653
326	H	0.570668	0.110579	0.594481
327	H	0.61835	0.153042	0.566831
328	H	0.553775	0.166357	0.564638
329	H	0.600726	0.210713	0.591716
330	N	0.535862	0.130029	0.422093
331	O	0.541229	0.154427	0.455681
332	O	0.50303	0.091822	0.429525
333	C	0.832287	0.314323	0.338454
334	C	0.849204	0.339252	0.378299
335	C	0.857921	0.383925	0.38168
336	C	0.848964	0.404343	0.344338
337	C	0.83695	0.380687	0.635917
338	C	0.827204	0.33583	0.633848
339	H	0.814375	0.317957	0.604772
340	C	0.849222	0.446528	0.346313
341	C	0.836034	0.460397	0.385539
342	C	0.827982	0.496485	0.385024
343	C	0.832153	0.52006	0.344903
344	C	0.844953	0.506766	0.638716
345	C	0.85324	0.470491	0.63913
346	H	0.827054	0.441511	0.414053
347	H	0.814919	0.502672	0.413266
348	H	0.844691	0.521261	0.608735
349	H	0.852642	0.323934	0.406299
350	C	0.860679	0.453156	0.596126
351	C	0.830946	0.401577	0.594558
352	H	0.895893	0.46226	0.594357
353	H	0.853419	0.467471	0.5667
354	H	0.840076	0.389594	0.56455
355	H	0.795723	0.392212	0.591632
356	N	0.876347	0.408072	0.422036
357	O	0.851928	0.389038	0.45561
358	O	0.914574	0.413484	0.429498
359	C	0.692068	0.520134	0.338555
360	C	0.667115	0.512127	0.37838
361	C	0.62242	0.4762	0.381724
362	C	0.602029	0.446815	0.344385
363	C	0.625734	0.458427	0.635984
364	C	0.670597	0.493548	0.633932
365	H	0.688494	0.498598	0.604863
366	C	0.559868	0.404865	0.34636
367	C	0.546015	0.377804	0.385582
368	C	0.509891	0.333695	0.385101
369	C	0.486324	0.314263	0.344991
370	C	0.499689	0.340302	0.638766
371	C	0.535951	0.384871	0.63916
372	H	0.564802	0.387838	0.414161
373	H	0.503634	0.314518	0.413404
374	H	0.485166	0.325571	0.608785
375	H	0.682417	0.530943	0.406349
376	C	0.553257	0.409647	0.596163
377	C	0.60486	0.431557	0.594609
378	H	0.544105	0.435718	0.594397
379	H	0.538966	0.388079	0.566737
380	H	0.616828	0.452691	0.564618
381	H	0.614278	0.405744	0.591652
382	N	0.598215	0.470518	0.422036
383	O	0.617216	0.465167	0.455664
384	O	0.592801	0.503334	0.429417
385	C	0.051426	0.027672	0.670749
386	C	0.025977	0.049613	0.670803
387	C	0.978554	0.025823	0.670773
388	C	0.956612	0.978444	0.670803
389	C	0.980415	0.954825	0.670756
390	C	0.027806	0.98026	0.6708
391	H	0.922371	0.960658	0.670537
392	H	0.045606	0.963822	0.67052
393	H	0.042421	0.083845	0.670541
394	C	0.460196	0.19555	0.672848
395	C	0.483314	0.242691	0.674504
396	C	0.460387	0.266932	0.675257
397	C	0.41315	0.243223	0.673205
398	C	0.38896	0.195792	0.672401
399	C	0.412885	0.172255	0.672801
400	H	0.396282	0.260622	0.673488
401	H	0.395848	0.138023	0.67155
402	H	0.517658	0.259788	0.675412
403	C	0.810904	0.266912	0.672821
404	C	0.763747	0.242883	0.674524
405	C	0.739509	0.195728	0.675294
406	C	0.763233	0.172217	0.673215
407	C	0.810677	0.195464	0.672361
408	C	0.834215	0.242913	0.672747
409	H	0.745833	0.137959	0.673521
410	H	0.868456	0.260112	0.671469
411	H	0.74664	0.260116	0.675462
412	C	0.7395	0.546161	0.672855
413	C	0.763548	0.523057	0.674487
414	C	0.810719	0.545977	0.675223
415	C	0.834226	0.593202	0.673175
416	C	0.81096	0.617379	0.672384
417	C	0.763499	0.593459	0.672798
418	H	0.868494	0.610061	0.673414
419	H	0.746283	0.610486	0.6716
420	H	0.746316	0.488722	0.675402
421	C	0.341346	0.172342	0.00367
422	C	0.319187	0.171284	0.963509
423	C	0.271805	0.147628	0.960235
424	C	0.245058	0.125836	0.998872
425	C	0.267779	0.125306	0.705551
426	C	0.315105	0.148344	0.707607
427	H	0.330713	0.148086	0.736821
428	C	0.19635	0.101312	0.999061
429	C	0.170019	0.113188	0.972037
430	C	0.122931	0.089221	0.973604
431	C	0.099524	0.052486	0.00297
432	C	0.125503	0.041834	0.69847
433	C	0.17293	0.066073	0.697383
434	H	0.184668	0.14072	0.951832
435	H	0.10578	0.098825	0.952575
436	H	0.109652	0.01663	0.72147
437	H	0.337819	0.186689	0.935459
438	C	0.198978	0.055831	0.730459
439	C	0.241339	0.099448	0.74548
440	H	0.208837	0.033488	0.71457
441	H	0.179089	0.038969	0.760275
442	H	0.260949	0.090642	0.767787
443	H	0.231442	0.120205	0.764571
444	N	0.251863	0.143187	0.917467
445	O	0.262031	0.180493	0.900583
446	O	0.262508	0.122189	0.890255
447	C	0.834128	0.171303	0.003629
448	C	0.835193	0.150215	0.963468
449	C	0.858785	0.126428	0.960219
450	C	0.880511	0.121406	0.998879
451	C	0.881081	0.144686	0.705544
452	C	0.858088	0.169015	0.707586
453	H	0.858346	0.184875	0.7368
454	C	0.904987	0.097175	0.999091
455	C	0.893056	0.058949	0.972094
456	C	0.917008	0.035815	0.973641
457	C	0.953739	0.049105	0.003017
458	C	0.964413	0.08572	0.69853
459	C	0.940214	0.108946	0.697433
460	H	0.865556	0.046133	0.951839
461	H	0.907389	0.009075	0.952599
462	H	0.989629	0.095064	0.721524
463	H	0.819788	0.153445	0.935418
464	C	0.950502	0.145246	0.730496
465	C	0.906903	0.144059	0.74549
466	H	0.972893	0.177427	0.714604
467	H	0.967341	0.142196	0.760322
468	H	0.915741	0.172476	0.767797
469	H	0.886095	0.113421	0.764578
470	N	0.86321	0.110895	0.917464
471	O	0.825883	0.08381	0.900569
472	O	0.884271	0.142514	0.890252
473	C	0.835117	0.664982	0.003656
474	C	0.856189	0.687136	0.963489
475	C	0.87996	0.734504	0.960229
476	C	0.884954	0.761244	0.998879
477	C	0.86165	0.738531	0.705538
478	C	0.837357	0.69122	0.707593
479	H	0.821479	0.675621	0.7368
480	C	0.909136	0.80994	0.999067
481	C	0.947377	0.836252	0.972087
482	C	0.970473	0.883326	0.973625
483	C	0.957137	0.906737	0.002987
484	C	0.920488	0.880777	0.698463
485	C	0.897309	0.833362	0.697386
486	H	0.960238	0.821599	0.951849
487	H	0.997239	0.900463	0.952606
488	H	0.911136	0.896627	0.721473
489	H	0.853004	0.66851	0.935449
490	C	0.860995	0.807335	0.730442
491	C	0.86223	0.764966	0.745466
492	H	0.828802	0.797505	0.714533
493	H	0.864012	0.827218	0.760258
494	H	0.833803	0.745378	0.767764
495	H	0.892878	0.774836	0.764568
496	N	0.895505	0.754455	0.917474
497	O	0.922626	0.74424	0.900603
498	O	0.863885	0.743869	0.890245
499	C	0.48623	0.17416	0.671832
500	C	0.494245	0.157259	0.711687
501	C	0.530176	0.14849	0.715078
502	C	0.55957	0.157433	0.67775
503	C	0.547975	0.169511	0.969332
504	C	0.512828	0.179222	0.967233
505	H	0.507825	0.192094	0.938163
506	C	0.601529	0.157212	0.679792
507	C	0.628549	0.170362	0.719034
508	C	0.67271	0.17845	0.718523
509	C	0.692176	0.174324	0.678426
510	C	0.666072	0.161489	0.972229
511	C	0.62151	0.153248	0.972602
512	H	0.61861	0.179312	0.747549
513	H	0.691948	0.191514	0.746768
514	H	0.680837	0.161812	0.942231
515	H	0.47544	0.153776	0.739663
516	C	0.596759	0.145785	0.929578
517	C	0.574886	0.1755	0.927987
518	H	0.570668	0.110579	0.927812
519	H	0.61835	0.153042	0.900166
520	H	0.553775	0.166357	0.897972
521	H	0.600726	0.210713	0.92505
522	N	0.535862	0.130029	0.755428
523	O	0.541229	0.154427	0.789015
524	O	0.50303	0.091822	0.762859
525	C	0.832287	0.314323	0.671789
526	C	0.849204	0.339252	0.711633
527	C	0.857921	0.383925	0.715014
528	C	0.848964	0.404343	0.677673
529	C	0.83695	0.380687	0.969251
530	C	0.827204	0.33583	0.967179
531	H	0.814375	0.317957	0.938106
532	C	0.849222	0.446528	0.679647
533	C	0.836034	0.460397	0.718873
534	C	0.827982	0.496485	0.718358
535	C	0.832153	0.52006	0.678234
536	C	0.844953	0.506766	0.972047
537	C	0.85324	0.470491	0.972464
538	H	0.827054	0.441511	0.747387
539	H	0.814919	0.502672	0.7466
540	H	0.844691	0.521261	0.942066
541	H	0.852642	0.323934	0.739633
542	C	0.860679	0.453156	0.929457
543	C	0.830946	0.401577	0.927893
544	H	0.895893	0.46226	0.927691
545	H	0.853419	0.467471	0.900034
546	H	0.840076	0.389594	0.897885
547	H	0.795723	0.392212	0.924966
548	N	0.876347	0.408072	0.755367
549	O	0.851928	0.389038	0.788941
550	O	0.914574	0.413484	0.762829
551	C	0.692068	0.520134	0.67189
552	C	0.667115	0.512127	0.711711
553	C	0.62242	0.4762	0.715058
554	C	0.602029	0.446815	0.67772
555	C	0.625734	0.458427	0.969319
556	C	0.670597	0.493548	0.967263
557	H	0.688494	0.498598	0.938197
558	C	0.559868	0.404865	0.679694
559	C	0.546015	0.377804	0.718917
560	C	0.509891	0.333695	0.718436
561	C	0.486324	0.314263	0.678325
562	C	0.499689	0.340302	0.972101
563	C	0.535951	0.384871	0.972494
564	H	0.564802	0.387838	0.747495
565	H	0.503634	0.314518	0.746738
566	H	0.485166	0.325571	0.94212
567	H	0.682417	0.530943	0.739683
568	C	0.553257	0.409647	0.929497
569	C	0.60486	0.431557	0.927943
570	H	0.544105	0.435718	0.927731
571	H	0.538966	0.388079	0.900068
572	H	0.616828	0.452691	0.897952
573	H	0.614278	0.405744	0.924986
574	N	0.598215	0.470518	0.75537
575	O	0.617216	0.465167	0.788998
576	O	0.592801	0.503334	0.762751
