data_C144H90N72O36_2018-02-15_10:45:16
#******************************************
#
# CIF file created by Zeo++
# Zeo++ is an open source package to
# analyze microporous materials
#
#*******************************************

_cell_length_a		29.2248   
_cell_length_b		29.2248   
_cell_length_c		29.8866   
_cell_angle_alpha		90   
_cell_angle_beta		90   
_cell_angle_gamma		120   

_symmetry_space_group_name_H-M		'P1'
_symmetry_Int_Tables_number		1
_symmetry_cell_setting		Monoclinic

loop_
_symmetry_equiv_pos_as_xyz
'+x,+y,+z'

loop_
_atom_site_label
_atom_site_type_symbol
_atom_site_fract_x
_atom_site_fract_y
_atom_site_fract_z
1	C	0.030817	0.519475	0.002656
2	H	0.038663	0.504156	0.070618
3	N	0.034771	0.546532	0.257949
4	C	0.030817	0.519475	0.33599
5	H	0.038663	0.504156	0.40395
6	N	0.034771	0.546532	0.591281
7	C	0.030817	0.519475	0.669323
8	H	0.038663	0.504156	0.737286
9	N	0.034771	0.546532	0.924618
10	H	0.054739	0.567623	0.232316
11	H	0.054739	0.567623	0.565648
12	H	0.054739	0.567623	0.898984
13	C	0.282104	0.640722	0.016021
14	N	0.310214	0.615226	0.015958
15	C	0.364023	0.642334	0.016017
16	N	0.389516	0.695939	0.015971
17	C	0.362409	0.72264	0.016045
18	N	0.308803	0.694528	0.015987
19	N	0.229835	0.611713	0.015146
20	N	0.385668	0.77491	0.015165
21	N	0.393037	0.619082	0.015096
22	C	0.723579	0.362245	0.99751
23	N	0.696295	0.388587	0.997383
24	C	0.6425	0.362284	0.99752
25	N	0.616156	0.308658	0.997389
26	C	0.642461	0.281165	0.99752
27	N	0.696086	0.308449	0.997383
28	N	0.775888	0.390439	0.996941
29	N	0.618346	0.228856	0.996944
30	N	0.614304	0.386398	0.996948
31	C	0.415339	0.553462	0.007968
32	C	0.444728	0.554806	0.046149
33	C	0.479479	0.53439	0.042865
34	C	0.485256	0.512276	0.00265
35	C	0.455719	0.510818	0.297582
36	C	0.421238	0.531577	0.301041
37	H	0.399402	0.530056	0.273639
38	C	0.520571	0.491924	0.335749
39	C	0.508635	0.444878	0.025437
40	C	0.545302	0.426687	0.024278
41	C	0.59354	0.453997	0.333809
42	C	0.605409	0.501181	0.310366
43	C	0.568701	0.51938	0.312081
44	H	0.536475	0.393044	0.041658
45	H	0.577088	0.553387	0.295481
46	H	0.50055	0.535425	0.070617
47	N	0.460138	0.416738	0.048792
48	N	0.458228	0.489194	0.257935
49	H	0.437147	0.488075	0.232297
50	H	0.479738	0.472714	0.254169
51	N	0.650258	0.529499	0.285786
52	H	0.656957	0.561163	0.269586
53	H	0.675871	0.51793	0.28175
54	N	0.438127	0.575422	0.087017
55	O	0.467467	0.413305	0.089796
56	O	0.420941	0.540957	0.117299
57	O	0.432183	0.37099	0.033231
58	O	0.480844	0.614238	0.099982
59	C	0.629063	0.43551	0.335933
60	C	0.378567	0.570081	0.00942
61	H	0.340837	0.543533	0.003823
62	H	0.666853	0.461311	0.342106
63	C	0.451272	0.862825	0.008003
64	C	0.449919	0.890878	0.046175
65	C	0.470331	0.946044	0.042879
66	C	0.492453	0.973926	0.002662
67	C	0.493921	0.945842	0.297603
68	C	0.473162	0.890602	0.301073
69	H	0.474691	0.870281	0.273678
70	C	0.51281	0.029596	0.335756
71	C	0.559857	0.064705	0.02544
72	C	0.57805	0.119563	0.024277
73	C	0.550746	0.140493	0.333804
74	C	0.503563	0.105179	0.310361
75	C	0.485357	0.050269	0.31208
76	H	0.611695	0.144381	0.041658
77	H	0.451349	0.02465	0.295481
78	H	0.469294	0.966088	0.070626
79	N	0.587995	0.044348	0.0488
80	N	0.515549	0.969967	0.257955
81	H	0.516668	0.949995	0.232322
82	H	0.532022	0.007955	0.254181
83	N	0.475246	0.121709	0.285778
84	H	0.443581	0.096744	0.269578
85	H	0.486819	0.158892	0.281739
86	N	0.429303	0.863675	0.087047
87	O	0.591425	0.055115	0.089804
88	O	0.463765	0.880965	0.117332
89	O	0.633741	0.062137	0.033241
90	O	0.390483	0.867575	0.100002
91	C	0.56923	0.194501	0.335926
92	C	0.434667	0.809438	0.009477
93	H	0.461188	0.798249	0.003764
94	H	0.543435	0.206494	0.342096
95	C	0.141921	0.589401	0.00799
96	C	0.113869	0.559993	0.046163
97	C	0.058703	0.525236	0.04287
98	C	0.058899	0.549029	0.297595
99	C	0.114141	0.583514	0.301062
100	H	0.134457	0.605364	0.273667
101	C	0.975148	0.484164	0.335749
102	C	0.940041	0.4961	0.025438
103	C	0.885181	0.459434	0.024275
104	C	0.864251	0.411203	0.333801
105	C	0.899564	0.39933	0.310358
106	C	0.954474	0.436036	0.312076
107	H	0.860362	0.468261	0.041656
108	H	0.980096	0.427651	0.295476
109	N	0.960397	0.544592	0.048798
110	H	0.996783	0.525018	0.254177
111	N	0.883034	0.354485	0.285774
112	H	0.907999	0.347786	0.269574
113	H	0.845852	0.328875	0.281735
114	N	0.141079	0.566584	0.087034
115	O	0.94963	0.537259	0.089801
116	O	0.12379	0.583755	0.11732
117	O	0.942607	0.572554	0.03324
118	O	0.13718	0.523865	0.099988
119	C	0.810242	0.375679	0.335923
120	C	0.195307	0.626186	0.009461
121	H	0.206503	0.663895	0.003745
122	H	0.798248	0.337888	0.342089
123	C	0.282104	0.640722	0.349354
124	N	0.310214	0.615226	0.34929
125	C	0.364023	0.642334	0.34935
126	N	0.389516	0.695939	0.349303
127	C	0.362409	0.72264	0.34938
128	N	0.308803	0.694528	0.34932
129	N	0.229835	0.611713	0.34848
130	N	0.385668	0.77491	0.348497
131	N	0.393037	0.619082	0.34843
132	C	0.723579	0.362245	0.330844
133	N	0.696295	0.388587	0.330716
134	C	0.6425	0.362284	0.330853
135	N	0.616156	0.308658	0.330721
136	C	0.642461	0.281165	0.330852
137	N	0.696086	0.308449	0.330715
138	N	0.775888	0.390439	0.330273
139	N	0.618346	0.228856	0.330278
140	N	0.614304	0.386398	0.33028
141	C	0.415339	0.553462	0.3413
142	C	0.444728	0.554806	0.379484
143	C	0.479479	0.53439	0.376198
144	C	0.485256	0.512276	0.335983
145	C	0.455719	0.510818	0.630914
146	C	0.421238	0.531577	0.634374
147	H	0.399402	0.530056	0.606974
148	C	0.520571	0.491924	0.669085
149	C	0.508635	0.444878	0.358769
150	C	0.545302	0.426687	0.357611
151	C	0.59354	0.453997	0.667141
152	C	0.605409	0.501181	0.643699
153	C	0.568701	0.51938	0.645416
154	H	0.536475	0.393044	0.37499
155	H	0.577088	0.553387	0.628813
156	H	0.50055	0.535425	0.40395
157	N	0.460138	0.416738	0.382124
158	N	0.458228	0.489194	0.591268
159	H	0.437147	0.488075	0.565631
160	H	0.479738	0.472714	0.587504
161	N	0.650258	0.529499	0.61912
162	H	0.656957	0.561163	0.602919
163	H	0.675871	0.51793	0.615085
164	N	0.438127	0.575422	0.420352
165	O	0.467467	0.413305	0.423129
166	O	0.420941	0.540957	0.450633
167	O	0.432183	0.37099	0.366565
168	O	0.480844	0.614238	0.433314
169	C	0.629063	0.43551	0.669266
170	C	0.378567	0.570081	0.342752
171	H	0.340837	0.543533	0.337158
172	H	0.666853	0.461311	0.675439
173	C	0.451272	0.862825	0.341337
174	C	0.449919	0.890878	0.379508
175	C	0.470331	0.946044	0.376212
176	C	0.492453	0.973926	0.335996
177	C	0.493921	0.945842	0.630938
178	C	0.473162	0.890602	0.634408
179	H	0.474691	0.870281	0.607011
180	C	0.51281	0.029596	0.669089
181	C	0.559857	0.064705	0.358773
182	C	0.57805	0.119563	0.357611
183	C	0.550746	0.140493	0.667138
184	C	0.503563	0.105179	0.643696
185	C	0.485357	0.050269	0.645412
186	H	0.611695	0.144381	0.37499
187	H	0.451349	0.02465	0.628813
188	H	0.469294	0.966088	0.40396
189	N	0.587995	0.044348	0.382134
190	N	0.515549	0.969967	0.591288
191	H	0.516668	0.949995	0.565654
192	H	0.532022	0.007955	0.587514
193	N	0.475246	0.121709	0.61911
194	H	0.443581	0.096744	0.602912
195	H	0.486819	0.158892	0.615071
196	N	0.429303	0.863675	0.420382
197	O	0.591425	0.055115	0.423136
198	O	0.463765	0.880965	0.450666
199	O	0.633741	0.062137	0.366575
200	O	0.390483	0.867575	0.433334
201	C	0.56923	0.194501	0.669259
202	C	0.434667	0.809438	0.342809
203	H	0.461188	0.798249	0.337097
204	H	0.543435	0.206494	0.675429
205	C	0.141921	0.589401	0.341323
206	C	0.113869	0.559993	0.379498
207	C	0.058703	0.525236	0.376205
208	C	0.058899	0.549029	0.630928
209	C	0.114141	0.583514	0.634397
210	H	0.134457	0.605364	0.607001
211	C	0.975148	0.484164	0.669085
212	C	0.940041	0.4961	0.358773
213	C	0.885181	0.459434	0.357608
214	C	0.864251	0.411203	0.667135
215	C	0.899564	0.39933	0.643693
216	C	0.954474	0.436036	0.645409
217	H	0.860362	0.468261	0.37499
218	H	0.980096	0.427651	0.62881
219	N	0.960397	0.544592	0.382131
220	H	0.996783	0.525018	0.58751
221	N	0.883034	0.354485	0.619106
222	H	0.907999	0.347786	0.602908
223	H	0.845852	0.328875	0.615068
224	N	0.141079	0.566584	0.420369
225	O	0.94963	0.537259	0.423136
226	O	0.12379	0.583755	0.450653
227	O	0.942607	0.572554	0.366572
228	O	0.13718	0.523865	0.433321
229	C	0.810242	0.375679	0.669256
230	C	0.195307	0.626186	0.342795
231	H	0.206503	0.663895	0.337077
232	H	0.798248	0.337888	0.675426
233	C	0.282104	0.640722	0.682687
234	N	0.310214	0.615226	0.682626
235	C	0.364023	0.642334	0.682683
236	N	0.389516	0.695939	0.68264
237	C	0.362409	0.72264	0.682713
238	N	0.308803	0.694528	0.682653
239	N	0.229835	0.611713	0.681813
240	N	0.385668	0.77491	0.681833
241	N	0.393037	0.619082	0.681763
242	C	0.723579	0.362245	0.664177
243	N	0.696295	0.388587	0.66405
244	C	0.6425	0.362284	0.664187
245	N	0.616156	0.308658	0.664053
246	C	0.642461	0.281165	0.664187
247	N	0.696086	0.308449	0.66405
248	N	0.775888	0.390439	0.663608
249	N	0.618346	0.228856	0.663611
250	N	0.614304	0.386398	0.663615
251	C	0.415339	0.553462	0.674636
252	C	0.444728	0.554806	0.712817
253	C	0.479479	0.53439	0.709531
254	C	0.485256	0.512276	0.669316
255	C	0.455719	0.510818	0.964247
256	C	0.421238	0.531577	0.967707
257	H	0.399402	0.530056	0.940307
258	C	0.520571	0.491924	0.002417
259	C	0.508635	0.444878	0.692106
260	C	0.545302	0.426687	0.690945
261	C	0.59354	0.453997	0.000474
262	C	0.605409	0.501181	0.977032
263	C	0.568701	0.51938	0.978749
264	H	0.536475	0.393044	0.708327
265	H	0.577088	0.553387	0.962149
266	H	0.50055	0.535425	0.737283
267	N	0.460138	0.416738	0.715461
268	N	0.458228	0.489194	0.924604
269	H	0.437147	0.488075	0.898964
270	H	0.479738	0.472714	0.920837
271	N	0.650258	0.529499	0.952453
272	H	0.656957	0.561163	0.936255
273	H	0.675871	0.51793	0.948418
274	N	0.438127	0.575422	0.753685
275	O	0.467467	0.413305	0.756462
276	O	0.420941	0.540957	0.783966
277	O	0.432183	0.37099	0.699898
278	O	0.480844	0.614238	0.766651
279	C	0.629063	0.43551	0.002599
280	C	0.378567	0.570081	0.676088
281	H	0.340837	0.543533	0.670491
282	H	0.666853	0.461311	0.008771
283	C	0.451272	0.862825	0.67467
284	C	0.449919	0.890878	0.712844
285	C	0.470331	0.946044	0.709545
286	C	0.492453	0.973926	0.66933
287	C	0.493921	0.945842	0.964271
288	C	0.473162	0.890602	0.967741
289	H	0.474691	0.870281	0.940347
290	C	0.51281	0.029596	0.00242
291	C	0.559857	0.064705	0.692109
292	C	0.57805	0.119563	0.690945
293	C	0.550746	0.140493	0.000471
294	C	0.503563	0.105179	0.977029
295	C	0.485357	0.050269	0.978746
296	H	0.611695	0.144381	0.708324
297	H	0.451349	0.02465	0.962149
298	H	0.469294	0.966088	0.737293
299	N	0.587995	0.044348	0.715467
300	N	0.515549	0.969967	0.924621
301	H	0.516668	0.949995	0.898991
302	H	0.532022	0.007955	0.920847
303	N	0.475246	0.121709	0.952446
304	H	0.443581	0.096744	0.936245
305	H	0.486819	0.158892	0.948408
306	N	0.429303	0.863675	0.753715
307	O	0.591425	0.055115	0.756472
308	O	0.463765	0.880965	0.784
309	O	0.633741	0.062137	0.699908
310	O	0.390483	0.867575	0.766671
311	C	0.56923	0.194501	0.002593
312	C	0.434667	0.809438	0.676145
313	H	0.461188	0.798249	0.67043
314	H	0.543435	0.206494	0.008763
315	C	0.141921	0.589401	0.674656
316	C	0.113869	0.559993	0.712831
317	C	0.058703	0.525236	0.709538
318	C	0.058899	0.549029	0.964261
319	C	0.114141	0.583514	0.967731
320	H	0.134457	0.605364	0.940334
321	C	0.975148	0.484164	0.002417
322	C	0.940041	0.4961	0.692106
323	C	0.885181	0.459434	0.690941
324	C	0.864251	0.411203	0.000468
325	C	0.899564	0.39933	0.977026
326	C	0.954474	0.436036	0.978742
327	H	0.860362	0.468261	0.708324
328	H	0.980096	0.427651	0.962143
329	N	0.960397	0.544592	0.715464
330	H	0.996783	0.525018	0.920843
331	N	0.883034	0.354485	0.952439
332	H	0.907999	0.347786	0.936242
333	H	0.845852	0.328875	0.948404
334	N	0.141079	0.566584	0.753702
335	O	0.94963	0.537259	0.756469
336	O	0.12379	0.583755	0.783986
337	O	0.942607	0.572554	0.699908
338	O	0.13718	0.523865	0.766654
339	C	0.810242	0.375679	0.00259
340	C	0.195307	0.626186	0.676129
341	H	0.206503	0.663895	0.67041
342	H	0.798248	0.337888	0.008757
