data_C216H72N144_2018-02-15_10:37:41
#******************************************
#
# CIF file created by Zeo++
# Zeo++ is an open source package to
# analyze microporous materials
#
#*******************************************

_cell_length_a		28.7666   
_cell_length_b		28.7665   
_cell_length_c		29.455   
_cell_angle_alpha		90   
_cell_angle_beta		90   
_cell_angle_gamma		120   

_symmetry_space_group_name_H-M		'P1'
_symmetry_Int_Tables_number		1
_symmetry_cell_setting		Monoclinic

loop_
_symmetry_equiv_pos_as_xyz
'+x,+y,+z'

loop_
_atom_site_label
_atom_site_type_symbol
_atom_site_fract_x
_atom_site_fract_y
_atom_site_fract_z
1	N	0.153346	0.369783	0.009112
2	C	0.125837	0.315232	0.009
3	N	0.153345	0.288189	0.009112
4	N	0.041943	0.273289	0.303245
5	C	0.069728	0.287178	0.009644
6	C	0.040325	0.272471	0.050574
7	H	0.059121	0.281867	0.081425
8	N	0.153346	0.369783	0.342444
9	C	0.125837	0.315232	0.342332
10	N	0.153345	0.288189	0.342448
11	N	0.041943	0.273289	0.636578
12	C	0.069728	0.287178	0.342977
13	C	0.040325	0.272471	0.383908
14	H	0.059121	0.281867	0.414758
15	N	0.153346	0.369783	0.675776
16	C	0.125837	0.315232	0.675664
17	N	0.153345	0.288189	0.67578
18	N	0.041943	0.273289	0.969913
19	C	0.069728	0.287178	0.676309
20	C	0.040325	0.272471	0.71724
21	H	0.059121	0.281867	0.74809
22	N	0.153347	0.869783	0.009112
23	C	0.125838	0.815232	0.009
24	N	0.153346	0.78819	0.009112
25	N	0.041944	0.773289	0.303245
26	C	0.069729	0.787178	0.009644
27	C	0.040325	0.772471	0.050574
28	H	0.059122	0.781868	0.081425
29	N	0.153347	0.869783	0.342444
30	C	0.125838	0.815232	0.342332
31	N	0.153346	0.78819	0.342448
32	N	0.041944	0.773289	0.636578
33	C	0.069729	0.787178	0.342977
34	C	0.040325	0.772471	0.383908
35	H	0.059122	0.781868	0.414758
36	N	0.153347	0.869783	0.675776
37	C	0.125838	0.815232	0.675664
38	N	0.153346	0.78819	0.67578
39	N	0.041944	0.773289	0.969913
40	C	0.069729	0.787178	0.676309
41	C	0.040325	0.772471	0.71724
42	H	0.059122	0.781868	0.74809
43	C	0.207897	0.397291	0.009
44	C	0.207896	0.315231	0.009
45	N	0.234939	0.369783	0.009115
46	C	0.319856	0.121212	0.009606
47	N	0.374407	0.14872	0.009494
48	C	0.401916	0.203271	0.009604
49	N	0.374408	0.230313	0.009489
50	C	0.319857	0.203272	0.009601
51	N	0.292815	0.148721	0.00949
52	C	0.277098	0.246026	0.301361
53	N	0.249841	0.273283	0.303246
54	C	0.235951	0.287177	0.009645
55	C	0.250655	0.272477	0.050574
56	N	0.277912	0.24522	0.04869
57	C	0.291802	0.231326	0.008959
58	H	0.286494	0.236627	0.27051
59	H	0.241259	0.281876	0.081426
60	C	0.277097	0.0357	0.301363
61	N	0.249841	0.481188	0.303246
62	C	0.235953	0.453402	0.009644
63	C	0.250655	0.482801	0.050575
64	N	0.277912	0.037317	0.048692
65	C	0.291801	0.065102	0.008959
66	H	0.286493	0.054497	0.270513
67	H	0.241261	0.464007	0.081425
68	C	0.487428	0.246032	0.301362
69	N	0.485809	0.245214	0.048691
70	C	0.458025	0.231326	0.008959
71	H	0.468631	0.236636	0.270511
72	C	0.207897	0.397291	0.342332
73	C	0.207896	0.315231	0.342336
74	N	0.234939	0.369783	0.342448
75	C	0.319856	0.121212	0.34294
76	N	0.374407	0.14872	0.342828
77	C	0.401916	0.203271	0.342937
78	N	0.374408	0.230313	0.342821
79	C	0.319857	0.203272	0.342933
80	N	0.292815	0.148721	0.342825
81	C	0.277098	0.246026	0.634693
82	N	0.249841	0.273283	0.636581
83	C	0.235951	0.287177	0.342977
84	C	0.250655	0.272477	0.383908
85	N	0.277912	0.24522	0.382023
86	C	0.291802	0.231326	0.342292
87	H	0.286494	0.236627	0.603843
88	H	0.241259	0.281876	0.414758
89	C	0.277097	0.0357	0.634697
90	N	0.249841	0.481188	0.636581
91	C	0.235953	0.453402	0.342977
92	C	0.250655	0.482801	0.383908
93	N	0.277912	0.037317	0.382027
94	C	0.291801	0.065102	0.342295
95	H	0.286493	0.054497	0.603846
96	H	0.241261	0.464007	0.414758
97	C	0.487428	0.246032	0.634697
98	N	0.485809	0.245214	0.382023
99	C	0.458025	0.231326	0.342292
100	H	0.468631	0.236636	0.603846
101	C	0.207897	0.397291	0.675664
102	C	0.207896	0.315231	0.675668
103	N	0.234939	0.369783	0.67578
104	C	0.319856	0.121212	0.676272
105	N	0.374407	0.14872	0.67616
106	C	0.401916	0.203271	0.676272
107	N	0.374408	0.230313	0.676157
108	C	0.319857	0.203272	0.676269
109	N	0.292815	0.148721	0.676157
110	C	0.277098	0.246026	0.968029
111	N	0.249841	0.273283	0.969913
112	C	0.235951	0.287177	0.676313
113	C	0.250655	0.272477	0.717243
114	N	0.277912	0.24522	0.715355
115	C	0.291802	0.231326	0.675624
116	H	0.286494	0.236627	0.937178
117	H	0.241259	0.281876	0.748093
118	C	0.277097	0.0357	0.968029
119	N	0.249841	0.481188	0.969913
120	C	0.235953	0.453402	0.676313
121	C	0.250655	0.482801	0.717243
122	N	0.277912	0.037317	0.715359
123	C	0.291801	0.065102	0.675627
124	H	0.286493	0.054497	0.937178
125	H	0.241261	0.464007	0.748093
126	C	0.487428	0.246032	0.968029
127	N	0.485809	0.245214	0.715359
128	C	0.458025	0.231326	0.675627
129	H	0.468631	0.236636	0.937178
130	C	0.207897	0.897291	0.009
131	C	0.207897	0.815232	0.009
132	N	0.234939	0.869783	0.009115
133	C	0.319858	0.621213	0.009606
134	N	0.374408	0.648722	0.009494
135	C	0.401917	0.703273	0.009604
136	N	0.374409	0.730315	0.009489
137	C	0.319858	0.703273	0.009601
138	N	0.292816	0.648722	0.00949
139	C	0.277098	0.746026	0.301361
140	N	0.24984	0.773281	0.303246
141	C	0.235952	0.787178	0.009645
142	C	0.250656	0.772479	0.050574
143	N	0.277912	0.745219	0.04869
144	C	0.291803	0.731327	0.008959
145	H	0.286493	0.736625	0.27051
146	H	0.241259	0.781876	0.081426
147	C	0.277098	0.535702	0.301363
148	N	0.249842	0.981189	0.303246
149	C	0.235952	0.9534	0.009644
150	C	0.250656	0.982803	0.050575
151	N	0.277912	0.537316	0.048692
152	C	0.291801	0.565101	0.008959
153	H	0.286493	0.554496	0.270513
154	H	0.241262	0.964009	0.081425
155	C	0.48743	0.746034	0.301362
156	N	0.485811	0.745215	0.048691
157	C	0.458026	0.731327	0.008959
158	H	0.468633	0.736637	0.270511
159	C	0.207897	0.897291	0.342332
160	C	0.207897	0.815232	0.342336
161	N	0.234939	0.869783	0.342448
162	C	0.319858	0.621213	0.34294
163	N	0.374408	0.648722	0.342828
164	C	0.401917	0.703273	0.342937
165	N	0.374409	0.730315	0.342821
166	C	0.319858	0.703273	0.342933
167	N	0.292816	0.648722	0.342825
168	C	0.277098	0.746026	0.634693
169	N	0.24984	0.773281	0.636581
170	C	0.235952	0.787178	0.342977
171	C	0.250656	0.772479	0.383908
172	N	0.277912	0.745219	0.382023
173	C	0.291803	0.731327	0.342292
174	H	0.286493	0.736625	0.603843
175	H	0.241259	0.781876	0.414758
176	C	0.277098	0.535702	0.634697
177	N	0.249842	0.981189	0.636581
178	C	0.235952	0.9534	0.342977
179	C	0.250656	0.982803	0.383908
180	N	0.277912	0.537316	0.382027
181	C	0.291801	0.565101	0.342295
182	H	0.286493	0.554496	0.603846
183	H	0.241262	0.964009	0.414758
184	C	0.48743	0.746034	0.634697
185	N	0.485811	0.745215	0.382023
186	C	0.458026	0.731327	0.342292
187	H	0.468633	0.736637	0.603846
188	C	0.207897	0.897291	0.675664
189	C	0.207897	0.815232	0.675668
190	N	0.234939	0.869783	0.67578
191	C	0.319858	0.621213	0.676272
192	N	0.374408	0.648722	0.67616
193	C	0.401917	0.703273	0.676272
194	N	0.374409	0.730315	0.676157
195	C	0.319858	0.703273	0.676269
196	N	0.292816	0.648722	0.676157
197	C	0.277098	0.746026	0.968029
198	N	0.24984	0.773281	0.969913
199	C	0.235952	0.787178	0.676313
200	C	0.250656	0.772479	0.717243
201	N	0.277912	0.745219	0.715355
202	C	0.291803	0.731327	0.675624
203	H	0.286493	0.736625	0.937178
204	H	0.241259	0.781876	0.748093
205	C	0.277098	0.535702	0.968029
206	N	0.249842	0.981189	0.969913
207	C	0.235952	0.9534	0.676313
208	C	0.250656	0.982803	0.717243
209	N	0.277912	0.537316	0.715359
210	C	0.291801	0.565101	0.675627
211	H	0.286493	0.554496	0.937178
212	H	0.241262	0.964009	0.748093
213	C	0.48743	0.746034	0.968029
214	N	0.485811	0.745215	0.715359
215	C	0.458026	0.731327	0.675627
216	H	0.468633	0.736637	0.937178
217	C	0.707896	0.397291	0.009
218	N	0.653344	0.369783	0.009112
219	C	0.625836	0.315232	0.009
220	N	0.653345	0.288189	0.009112
221	C	0.707896	0.315231	0.009
222	N	0.734939	0.369783	0.009115
223	C	0.819854	0.121212	0.009606
224	N	0.874406	0.14872	0.009494
225	C	0.901914	0.203271	0.009604
226	N	0.874405	0.230313	0.009489
227	C	0.819858	0.203272	0.009601
228	N	0.792815	0.148721	0.00949
229	C	0.777098	0.246026	0.301361
230	N	0.749839	0.273283	0.303246
231	C	0.735949	0.287177	0.009645
232	C	0.750656	0.272477	0.050574
233	N	0.777912	0.24522	0.04869
234	C	0.791801	0.231326	0.008959
235	H	0.786495	0.236627	0.27051
236	H	0.741259	0.281876	0.081426
237	C	0.777095	0.0357	0.301363
238	N	0.749841	0.481188	0.303246
239	C	0.735951	0.453402	0.009644
240	C	0.750654	0.482801	0.050575
241	N	0.77791	0.037317	0.048692
242	C	0.7918	0.065102	0.008959
243	H	0.786493	0.054497	0.270513
244	H	0.741261	0.464007	0.081425
245	C	0.987428	0.246032	0.301362
246	N	0.541941	0.273289	0.303245
247	C	0.569729	0.287178	0.009644
248	C	0.540326	0.272471	0.050574
249	N	0.985809	0.245214	0.048691
250	C	0.958025	0.231326	0.008959
251	H	0.968631	0.236636	0.270511
252	H	0.55912	0.281867	0.081425
253	C	0.707896	0.397291	0.342332
254	N	0.653344	0.369783	0.342444
255	C	0.625836	0.315232	0.342332
256	N	0.653345	0.288189	0.342448
257	C	0.707896	0.315231	0.342336
258	N	0.734939	0.369783	0.342448
259	C	0.819854	0.121212	0.34294
260	N	0.874406	0.14872	0.342828
261	C	0.901914	0.203271	0.342937
262	N	0.874405	0.230313	0.342821
263	C	0.819858	0.203272	0.342933
264	N	0.792815	0.148721	0.342825
265	C	0.777098	0.246026	0.634693
266	N	0.749839	0.273283	0.636581
267	C	0.735949	0.287177	0.342977
268	C	0.750656	0.272477	0.383908
269	N	0.777912	0.24522	0.382023
270	C	0.791801	0.231326	0.342292
271	H	0.786495	0.236627	0.603843
272	H	0.741259	0.281876	0.414758
273	C	0.777095	0.0357	0.634697
274	N	0.749841	0.481188	0.636581
275	C	0.735951	0.453402	0.342977
276	C	0.750654	0.482801	0.383908
277	N	0.77791	0.037317	0.382027
278	C	0.7918	0.065102	0.342295
279	H	0.786493	0.054497	0.603846
280	H	0.741261	0.464007	0.414758
281	C	0.987428	0.246032	0.634697
282	N	0.541941	0.273289	0.636578
283	C	0.569729	0.287178	0.342977
284	C	0.540326	0.272471	0.383908
285	N	0.985809	0.245214	0.382023
286	C	0.958025	0.231326	0.342292
287	H	0.968631	0.236636	0.603846
288	H	0.55912	0.281867	0.414758
289	C	0.707896	0.397291	0.675664
290	N	0.653344	0.369783	0.675776
291	C	0.625836	0.315232	0.675664
292	N	0.653345	0.288189	0.67578
293	C	0.707896	0.315231	0.675668
294	N	0.734939	0.369783	0.67578
295	C	0.819854	0.121212	0.676272
296	N	0.874406	0.14872	0.67616
297	C	0.901914	0.203271	0.676272
298	N	0.874405	0.230313	0.676157
299	C	0.819858	0.203272	0.676269
300	N	0.792815	0.148721	0.676157
301	C	0.777098	0.246026	0.968029
302	N	0.749839	0.273283	0.969913
303	C	0.735949	0.287177	0.676313
304	C	0.750656	0.272477	0.717243
305	N	0.777912	0.24522	0.715355
306	C	0.791801	0.231326	0.675624
307	H	0.786495	0.236627	0.937178
308	H	0.741259	0.281876	0.748093
309	C	0.777095	0.0357	0.968029
310	N	0.749841	0.481188	0.969913
311	C	0.735951	0.453402	0.676313
312	C	0.750654	0.482801	0.717243
313	N	0.77791	0.037317	0.715359
314	C	0.7918	0.065102	0.675627
315	H	0.786493	0.054497	0.937178
316	H	0.741261	0.464007	0.748093
317	C	0.987428	0.246032	0.968029
318	N	0.541941	0.273289	0.969913
319	C	0.569729	0.287178	0.676309
320	C	0.540326	0.272471	0.71724
321	N	0.985809	0.245214	0.715359
322	C	0.958025	0.231326	0.675627
323	H	0.968631	0.236636	0.937178
324	H	0.55912	0.281867	0.74809
325	C	0.707896	0.897291	0.009
326	N	0.653346	0.869783	0.009112
327	C	0.625837	0.815232	0.009
328	N	0.653345	0.78819	0.009112
329	C	0.707896	0.815232	0.009
330	N	0.734938	0.869783	0.009115
331	C	0.819857	0.621213	0.009606
332	N	0.874408	0.648722	0.009494
333	C	0.901917	0.703273	0.009604
334	N	0.874408	0.730315	0.009489
335	C	0.819856	0.703273	0.009601
336	N	0.792814	0.648722	0.00949
337	C	0.777096	0.746026	0.301361
338	N	0.74984	0.773281	0.303246
339	C	0.735951	0.787178	0.009645
340	C	0.750655	0.772479	0.050574
341	N	0.777913	0.745219	0.04869
342	C	0.791803	0.731327	0.008959
343	H	0.786492	0.736625	0.27051
344	H	0.741257	0.781876	0.081426
345	C	0.777098	0.535702	0.301363
346	N	0.749842	0.981189	0.303246
347	C	0.735951	0.9534	0.009644
348	C	0.750656	0.982803	0.050575
349	N	0.777912	0.537316	0.048692
350	C	0.791801	0.565101	0.008959
351	H	0.786491	0.554496	0.270513
352	H	0.741261	0.964009	0.081425
353	C	0.987428	0.746034	0.301362
354	N	0.541943	0.773289	0.303245
355	C	0.569728	0.787178	0.009644
356	C	0.540324	0.772471	0.050574
357	N	0.985812	0.745215	0.048691
358	C	0.958024	0.731327	0.008959
359	H	0.968633	0.736637	0.270511
360	H	0.559121	0.781868	0.081425
361	C	0.707896	0.897291	0.342332
362	N	0.653346	0.869783	0.342444
363	C	0.625837	0.815232	0.342332
364	N	0.653345	0.78819	0.342448
365	C	0.707896	0.815232	0.342336
366	N	0.734938	0.869783	0.342448
367	C	0.819857	0.621213	0.34294
368	N	0.874408	0.648722	0.342828
369	C	0.901917	0.703273	0.342937
370	N	0.874408	0.730315	0.342821
371	C	0.819856	0.703273	0.342933
372	N	0.792814	0.648722	0.342825
373	C	0.777096	0.746026	0.634693
374	N	0.74984	0.773281	0.636581
375	C	0.735951	0.787178	0.342977
376	C	0.750655	0.772479	0.383908
377	N	0.777913	0.745219	0.382023
378	C	0.791803	0.731327	0.342292
379	H	0.786492	0.736625	0.603843
380	H	0.741257	0.781876	0.414758
381	C	0.777098	0.535702	0.634697
382	N	0.749842	0.981189	0.636581
383	C	0.735951	0.9534	0.342977
384	C	0.750656	0.982803	0.383908
385	N	0.777912	0.537316	0.382027
386	C	0.791801	0.565101	0.342295
387	H	0.786491	0.554496	0.603846
388	H	0.741261	0.964009	0.414758
389	C	0.987428	0.746034	0.634697
390	N	0.541943	0.773289	0.636578
391	C	0.569728	0.787178	0.342977
392	C	0.540324	0.772471	0.383908
393	N	0.985812	0.745215	0.382023
394	C	0.958024	0.731327	0.342292
395	H	0.968633	0.736637	0.603846
396	H	0.559121	0.781868	0.414758
397	C	0.707896	0.897291	0.675664
398	N	0.653346	0.869783	0.675776
399	C	0.625837	0.815232	0.675664
400	N	0.653345	0.78819	0.67578
401	C	0.707896	0.815232	0.675668
402	N	0.734938	0.869783	0.67578
403	C	0.819857	0.621213	0.676272
404	N	0.874408	0.648722	0.67616
405	C	0.901917	0.703273	0.676272
406	N	0.874408	0.730315	0.676157
407	C	0.819856	0.703273	0.676269
408	N	0.792814	0.648722	0.676157
409	C	0.777096	0.746026	0.968029
410	N	0.74984	0.773281	0.969913
411	C	0.735951	0.787178	0.676313
412	C	0.750655	0.772479	0.717243
413	N	0.777913	0.745219	0.715355
414	C	0.791803	0.731327	0.675624
415	H	0.786492	0.736625	0.937178
416	H	0.741257	0.781876	0.748093
417	C	0.777098	0.535702	0.968029
418	N	0.749842	0.981189	0.969913
419	C	0.735951	0.9534	0.676313
420	C	0.750656	0.982803	0.717243
421	N	0.777912	0.537316	0.715359
422	C	0.791801	0.565101	0.675627
423	H	0.786491	0.554496	0.937178
424	H	0.741261	0.964009	0.748093
425	C	0.987428	0.746034	0.968029
426	N	0.541943	0.773289	0.969913
427	C	0.569728	0.787178	0.676309
428	C	0.540324	0.772471	0.71724
429	N	0.985812	0.745215	0.715359
430	C	0.958024	0.731327	0.675627
431	H	0.968633	0.736637	0.937178
432	H	0.559121	0.781868	0.74809
