data_C288H162N18O36_2018-02-15_10:39:01
#******************************************
#
# CIF file created by Zeo++
# Zeo++ is an open source package to
# analyze microporous materials
#
#*******************************************

_cell_length_a		34.3163   
_cell_length_b		34.3267   
_cell_length_c		29.5564   
_cell_angle_alpha		90   
_cell_angle_beta		90   
_cell_angle_gamma		119.993   

_symmetry_space_group_name_H-M		'P1'
_symmetry_Int_Tables_number		1
_symmetry_cell_setting		Monoclinic

loop_
_symmetry_equiv_pos_as_xyz
'+x,+y,+z'

loop_
_atom_site_label
_atom_site_type_symbol
_atom_site_fract_x
_atom_site_fract_y
_atom_site_fract_z
1	C	0.056027	0.02998	0.005744
2	C	0.031134	0.052752	0.005731
3	C	0.983456	0.029544	0.005711
4	C	0.960679	0.98189	0.005714
5	C	0.983899	0.957433	0.005721
6	C	0.031568	0.982314	0.005741
7	H	0.92624	0.964523	0.00567
8	H	0.048948	0.965257	0.005711
9	H	0.048197	0.087181	0.0057
10	C	0.463841	0.196736	0.014308
11	C	0.48821	0.243982	0.009805
12	C	0.46655	0.269501	0.004445
13	C	0.418952	0.246576	0.004516
14	C	0.393542	0.199094	0.008789
15	C	0.416376	0.174465	0.013336
16	H	0.402708	0.264584	0.000859
17	H	0.398405	0.140119	0.015929
18	H	0.522719	0.260207	0.010366
19	C	0.816953	0.270821	0.014391
20	C	0.769692	0.247947	0.0099
21	C	0.744175	0.200787	0.004465
22	C	0.76711	0.176126	0.004486
23	C	0.814606	0.198196	0.00877
24	C	0.839237	0.245639	0.01338
25	H	0.749097	0.141887	0.000795
26	H	0.873589	0.262013	0.015999
27	H	0.753454	0.266214	0.010512
28	C	0.742786	0.549739	0.014407
29	C	0.765672	0.525366	0.009912
30	C	0.812848	0.547011	0.004465
31	C	0.837509	0.594596	0.004479
32	C	0.815425	0.620008	0.008758
33	C	0.767967	0.59719	0.013367
34	H	0.871757	0.610826	0.000801
35	H	0.751584	0.615162	0.015977
36	H	0.747404	0.490873	0.010539
37	C	0.345727	0.17615	0.340992
38	C	0.320295	0.156403	0.047122
39	C	0.27295	0.133233	0.045771
40	C	0.249421	0.128068	0.338133
41	C	0.274834	0.14751	0.298066
42	C	0.322559	0.171614	0.300104
43	H	0.340528	0.185445	0.271088
44	C	0.201229	0.103579	0.338309
45	C	0.176541	0.11618	0.033887
46	C	0.129111	0.092223	0.034006
47	C	0.104385	0.054395	0.338948
48	C	0.129292	0.041609	0.310433
49	C	0.176711	0.065681	0.310103
50	H	0.19298	0.143405	0.054824
51	H	0.112741	0.102348	0.055802
52	H	0.113057	0.014874	0.288899
53	H	0.336094	0.159045	0.077288
54	H	0.193262	0.054979	0.289226
55	H	0.25569	0.119247	0.075092
56	N	0.252259	0.143432	0.25669
57	O	0.262027	0.123119	0.227425
58	O	0.261551	0.181182	0.241159
59	C	0.837541	0.173319	0.340958
60	C	0.857272	0.167597	0.047082
61	C	0.880375	0.14336	0.045726
62	C	0.885505	0.124982	0.338084
63	C	0.866085	0.130994	0.298021
64	C	0.842028	0.154659	0.300068
65	H	0.828213	0.158826	0.271054
66	C	0.909942	0.101228	0.338251
67	C	0.897289	0.063932	0.033818
68	C	0.921206	0.040419	0.033933
69	C	0.959045	0.05349	0.338884
70	C	0.971881	0.091188	0.310379
71	C	0.947837	0.114562	0.310039
72	H	0.870061	0.053176	0.054756
73	H	0.911049	0.013925	0.055727
74	H	0.998616	0.101657	0.288838
75	H	0.854651	0.180759	0.077251
76	H	0.95858	0.141822	0.289174
77	H	0.894359	0.140066	0.075042
78	N	0.870125	0.112483	0.256642
79	O	0.890475	0.142549	0.227377
80	O	0.832348	0.084069	0.241112
81	C	0.840297	0.667809	0.340955
82	C	0.845999	0.693244	0.047081
83	C	0.870192	0.740577	0.045727
84	C	0.888555	0.764089	0.338086
85	C	0.882566	0.738673	0.298021
86	C	0.858925	0.690964	0.300061
87	H	0.854789	0.672996	0.271048
88	C	0.912275	0.812269	0.338261
89	C	0.949578	0.836931	0.03383
90	C	0.973043	0.884348	0.033974
91	C	0.95996	0.909088	0.338908
92	C	0.922264	0.88421	0.310394
93	C	0.898914	0.836804	0.310048
94	H	0.960342	0.82048	0.054781
95	H	0.999553	0.900695	0.055757
96	H	0.911781	0.900457	0.288845
97	H	0.832834	0.677459	0.077247
98	H	0.871655	0.820275	0.289176
99	H	0.873465	0.757839	0.075044
100	N	0.901068	0.761233	0.256643
101	O	0.870985	0.751492	0.22738
102	O	0.929516	0.751909	0.241109
103	C	0.48867	0.17388	0.017483
104	C	0.495984	0.154923	0.311667
105	C	0.53212	0.146534	0.309626
106	C	0.562421	0.157299	0.012983
107	C	0.553907	0.174364	0.053422
108	C	0.517027	0.182069	0.055197
109	H	0.513534	0.1979	0.082993
110	C	0.604634	0.159193	0.005744
111	C	0.633038	0.186456	0.303747
112	C	0.678084	0.196742	0.300991
113	C	0.696524	0.180418	0.000331
114	C	0.667573	0.150815	0.033976
115	C	0.622249	0.140252	0.036496
116	H	0.622338	0.202196	0.281741
117	H	0.698302	0.219278	0.276937
118	H	0.680131	0.139751	0.059153
119	H	0.477817	0.151139	0.282881
120	H	0.603013	0.121038	0.062943
121	H	0.538255	0.135779	0.279557
122	N	0.584555	0.187781	0.090106
123	O	0.565477	0.16682	0.12566
124	O	0.602975	0.229302	0.097701
125	C	0.83978	0.318481	0.017698
126	C	0.858698	0.344693	0.311828
127	C	0.866972	0.389167	0.30973
128	C	0.856356	0.408794	0.013119
129	C	0.839391	0.383271	0.053598
130	C	0.831683	0.338699	0.055406
131	H	0.815878	0.3194	0.08322
132	C	0.854457	0.449093	0.005822
133	C	0.827196	0.450223	0.303808
134	C	0.816871	0.484949	0.301062
135	C	0.833241	0.519749	0.000365
136	C	0.862932	0.520472	0.033955
137	C	0.873388	0.485652	0.036557
138	H	0.811318	0.423721	0.281902
139	H	0.794248	0.482581	0.277077
140	H	0.873989	0.544105	0.059112
141	H	0.86232	0.330282	0.282983
142	H	0.892717	0.485709	0.062938
143	H	0.877672	0.405995	0.279623
144	N	0.82605	0.400543	0.090304
145	O	0.847094	0.402473	0.125815
146	O	0.784533	0.377458	0.097989
147	C	0.695101	0.524909	0.017678
148	C	0.668891	0.517664	0.311822
149	C	0.624405	0.481475	0.309734
150	C	0.604803	0.451179	0.013084
151	C	0.630359	0.459715	0.053554
152	C	0.674916	0.496624	0.055409
153	H	0.694232	0.500025	0.083183
154	C	0.564523	0.408955	0.005805
155	C	0.563343	0.380633	0.303713
156	C	0.528601	0.335596	0.300959
157	C	0.49382	0.317136	0.00029
158	C	0.493089	0.346096	0.033887
159	C	0.52794	0.391357	0.036519
160	H	0.589835	0.391269	0.281787
161	H	0.530954	0.31536	0.276952
162	H	0.469553	0.33351	0.059139
163	H	0.683308	0.535703	0.282983
164	H	0.527933	0.410566	0.062979
165	H	0.607564	0.475319	0.279631
166	N	0.613108	0.429046	0.090209
167	O	0.611141	0.448074	0.125764
168	O	0.636244	0.410657	0.097834
169	C	0.056027	0.02998	0.339077
170	C	0.031134	0.052752	0.339067
171	C	0.983456	0.029544	0.339043
172	C	0.960679	0.98189	0.339047
173	C	0.983899	0.957433	0.339057
174	C	0.031568	0.982314	0.339074
175	H	0.92624	0.964523	0.339003
176	H	0.048948	0.965257	0.339043
177	H	0.048197	0.087181	0.339033
178	C	0.463841	0.196736	0.34764
179	C	0.48821	0.243982	0.34314
180	C	0.46655	0.269501	0.337778
181	C	0.418952	0.246576	0.337849
182	C	0.393542	0.199094	0.342122
183	C	0.416376	0.174465	0.346669
184	H	0.402708	0.264584	0.33419
185	H	0.398405	0.140119	0.349261
186	H	0.522719	0.260207	0.343699
187	C	0.816953	0.270821	0.347725
188	C	0.769692	0.247947	0.343232
189	C	0.744175	0.200787	0.337798
190	C	0.76711	0.176126	0.337819
191	C	0.814606	0.198196	0.342102
192	C	0.839237	0.245639	0.346713
193	H	0.749097	0.141887	0.334127
194	H	0.873589	0.262013	0.349332
195	H	0.753454	0.266214	0.343847
196	C	0.742786	0.549739	0.347742
197	C	0.765672	0.525366	0.343245
198	C	0.812848	0.547011	0.3378
199	C	0.837509	0.594596	0.337811
200	C	0.815425	0.620008	0.342092
201	C	0.767967	0.59719	0.3467
202	H	0.871757	0.610826	0.334134
203	H	0.751584	0.615162	0.349312
204	H	0.747404	0.490873	0.343871
205	C	0.345727	0.17615	0.674327
206	C	0.320295	0.156403	0.380455
207	C	0.27295	0.133233	0.379105
208	C	0.249421	0.128068	0.671465
209	C	0.274834	0.14751	0.631399
210	C	0.322559	0.171614	0.633439
211	H	0.340528	0.185445	0.60442
212	C	0.201229	0.103579	0.671641
213	C	0.176541	0.11618	0.36722
214	C	0.129111	0.092223	0.367338
215	C	0.104385	0.054395	0.67228
216	C	0.129292	0.041609	0.643765
217	C	0.176711	0.065681	0.643437
218	H	0.19298	0.143405	0.388156
219	H	0.112741	0.102348	0.389137
220	H	0.113057	0.014874	0.622234
221	H	0.336094	0.159045	0.410621
222	H	0.193262	0.054979	0.622559
223	H	0.25569	0.119247	0.408426
224	N	0.252259	0.143432	0.590024
225	O	0.262027	0.123119	0.560758
226	O	0.261551	0.181182	0.574491
227	C	0.837541	0.173319	0.67429
228	C	0.857272	0.167597	0.380415
229	C	0.880375	0.14336	0.379062
230	C	0.885505	0.124982	0.671418
231	C	0.866085	0.130994	0.631355
232	C	0.842028	0.154659	0.633402
233	H	0.828213	0.158826	0.604387
234	C	0.909942	0.101228	0.671583
235	C	0.897289	0.063932	0.367152
236	C	0.921206	0.040419	0.367267
237	C	0.959045	0.05349	0.672216
238	C	0.971881	0.091188	0.643711
239	C	0.947837	0.114562	0.643373
240	H	0.870061	0.053176	0.388088
241	H	0.911049	0.013925	0.389059
242	H	0.998616	0.101657	0.622173
243	H	0.854651	0.180759	0.410584
244	H	0.95858	0.141822	0.622508
245	H	0.894359	0.140066	0.408375
246	N	0.870125	0.112483	0.589977
247	O	0.890475	0.142549	0.560711
248	O	0.832348	0.084069	0.574447
249	C	0.840297	0.667809	0.674287
250	C	0.845999	0.693244	0.380415
251	C	0.870192	0.740577	0.379062
252	C	0.888555	0.764089	0.671421
253	C	0.882566	0.738673	0.631355
254	C	0.858925	0.690964	0.633395
255	H	0.854789	0.672996	0.60438
256	C	0.912275	0.812269	0.671594
257	C	0.949578	0.836931	0.367166
258	C	0.973043	0.884348	0.367308
259	C	0.95996	0.909088	0.67224
260	C	0.922264	0.88421	0.643728
261	C	0.898914	0.836804	0.643383
262	H	0.960342	0.82048	0.388115
263	H	0.999553	0.900695	0.38909
264	H	0.911781	0.900457	0.62218
265	H	0.832834	0.677459	0.410581
266	H	0.871655	0.820275	0.622511
267	H	0.873465	0.757839	0.408378
268	N	0.901068	0.761233	0.589977
269	O	0.870985	0.751492	0.560714
270	O	0.929516	0.751909	0.574444
271	C	0.48867	0.17388	0.350817
272	C	0.495984	0.154923	0.645
273	C	0.53212	0.146534	0.64296
274	C	0.562421	0.157299	0.346317
275	C	0.553907	0.174364	0.386755
276	C	0.517027	0.182069	0.388532
277	H	0.513534	0.1979	0.416326
278	C	0.604634	0.159193	0.339077
279	C	0.633038	0.186456	0.63708
280	C	0.678084	0.196742	0.634326
281	C	0.696524	0.180418	0.333665
282	C	0.667573	0.150815	0.367311
283	C	0.622249	0.140252	0.369828
284	H	0.622338	0.202196	0.615075
285	H	0.698302	0.219278	0.61027
286	H	0.680131	0.139751	0.392487
287	H	0.477817	0.151139	0.616215
288	H	0.603013	0.121038	0.396276
289	H	0.538255	0.135779	0.612889
290	N	0.584555	0.187781	0.423438
291	O	0.565477	0.16682	0.458993
292	O	0.602975	0.229302	0.431033
293	C	0.83978	0.318481	0.35103
294	C	0.858698	0.344693	0.645163
295	C	0.866972	0.389167	0.643065
296	C	0.856356	0.408794	0.346453
297	C	0.839391	0.383271	0.386931
298	C	0.831683	0.338699	0.388738
299	H	0.815878	0.3194	0.416553
300	C	0.854457	0.449093	0.339155
301	C	0.827196	0.450223	0.637141
302	C	0.816871	0.484949	0.634394
303	C	0.833241	0.519749	0.333698
304	C	0.862932	0.520472	0.367287
305	C	0.873388	0.485652	0.369889
306	H	0.811318	0.423721	0.615237
307	H	0.794248	0.482581	0.610409
308	H	0.873989	0.544105	0.392446
309	H	0.86232	0.330282	0.616316
310	H	0.892717	0.485709	0.396273
311	H	0.877672	0.405995	0.612957
312	N	0.82605	0.400543	0.423637
313	O	0.847094	0.402473	0.459149
314	O	0.784533	0.377458	0.431321
315	C	0.695101	0.524909	0.351013
316	C	0.668891	0.517664	0.645156
317	C	0.624405	0.481475	0.643068
318	C	0.604803	0.451179	0.346419
319	C	0.630359	0.459715	0.386887
320	C	0.674916	0.496624	0.388741
321	H	0.694232	0.500025	0.416515
322	C	0.564523	0.408955	0.339138
323	C	0.563343	0.380633	0.637046
324	C	0.528601	0.335596	0.634292
325	C	0.49382	0.317136	0.333624
326	C	0.493089	0.346096	0.36722
327	C	0.52794	0.391357	0.369852
328	H	0.589835	0.391269	0.615122
329	H	0.530954	0.31536	0.610287
330	H	0.469553	0.33351	0.392473
331	H	0.683308	0.535703	0.616316
332	H	0.527933	0.410566	0.396313
333	H	0.607564	0.475319	0.612963
334	N	0.613108	0.429046	0.423543
335	O	0.611141	0.448074	0.459098
336	O	0.636244	0.410657	0.431169
337	C	0.056027	0.02998	0.672409
338	C	0.031134	0.052752	0.672399
339	C	0.983456	0.029544	0.672375
340	C	0.960679	0.98189	0.672379
341	C	0.983899	0.957433	0.672389
342	C	0.031568	0.982314	0.672406
343	H	0.92624	0.964523	0.672335
344	H	0.048948	0.965257	0.672379
345	H	0.048197	0.087181	0.672365
346	C	0.463841	0.196736	0.680976
347	C	0.48821	0.243982	0.676472
348	C	0.46655	0.269501	0.671113
349	C	0.418952	0.246576	0.671181
350	C	0.393542	0.199094	0.675457
351	C	0.416376	0.174465	0.680005
352	H	0.402708	0.264584	0.667523
353	H	0.398405	0.140119	0.682596
354	H	0.522719	0.260207	0.677034
355	C	0.816953	0.270821	0.68106
356	C	0.769692	0.247947	0.676567
357	C	0.744175	0.200787	0.67113
358	C	0.76711	0.176126	0.671154
359	C	0.814606	0.198196	0.675437
360	C	0.839237	0.245639	0.680049
361	H	0.749097	0.141887	0.667463
362	H	0.873589	0.262013	0.682667
363	H	0.753454	0.266214	0.67718
364	C	0.742786	0.549739	0.681074
365	C	0.765672	0.525366	0.676581
366	C	0.812848	0.547011	0.671133
367	C	0.837509	0.594596	0.671144
368	C	0.815425	0.620008	0.675427
369	C	0.767967	0.59719	0.680035
370	H	0.871757	0.610826	0.667469
371	H	0.751584	0.615162	0.682644
372	H	0.747404	0.490873	0.677207
373	C	0.345727	0.17615	0.00766
374	C	0.320295	0.156403	0.713791
375	C	0.27295	0.133233	0.712438
376	C	0.249421	0.128068	0.0048
377	C	0.274834	0.14751	0.964735
378	C	0.322559	0.171614	0.966771
379	H	0.340528	0.185445	0.937756
380	C	0.201229	0.103579	0.004976
381	C	0.176541	0.11618	0.700555
382	C	0.129111	0.092223	0.700674
383	C	0.104385	0.054395	0.005616
384	C	0.129292	0.041609	0.977101
385	C	0.176711	0.065681	0.976769
386	H	0.19298	0.143405	0.721491
387	H	0.112741	0.102348	0.722469
388	H	0.113057	0.014874	0.955566
389	H	0.336094	0.159045	0.743954
390	H	0.193262	0.054979	0.955894
391	H	0.25569	0.119247	0.741758
392	N	0.252259	0.143432	0.923356
393	O	0.262027	0.123119	0.89409
394	O	0.261551	0.181182	0.907827
395	C	0.837541	0.173319	0.007624
396	C	0.857272	0.167597	0.71375
397	C	0.880375	0.14336	0.712394
398	C	0.885505	0.124982	0.00475
399	C	0.866085	0.130994	0.964687
400	C	0.842028	0.154659	0.966734
401	H	0.828213	0.158826	0.937722
402	C	0.909942	0.101228	0.004919
403	C	0.897289	0.063932	0.700484
404	C	0.921206	0.040419	0.700599
405	C	0.959045	0.05349	0.005552
406	C	0.971881	0.091188	0.977047
407	C	0.947837	0.114562	0.976705
408	H	0.870061	0.053176	0.721424
409	H	0.911049	0.013925	0.722395
410	H	0.998616	0.101657	0.955505
411	H	0.854651	0.180759	0.74392
412	H	0.95858	0.141822	0.955843
413	H	0.894359	0.140066	0.74171
414	N	0.870125	0.112483	0.923309
415	O	0.890475	0.142549	0.894046
416	O	0.832348	0.084069	0.907779
417	C	0.840297	0.667809	0.00762
418	C	0.845999	0.693244	0.713747
419	C	0.870192	0.740577	0.712394
420	C	0.888555	0.764089	0.004753
421	C	0.882566	0.738673	0.964687
422	C	0.858925	0.690964	0.966727
423	H	0.854789	0.672996	0.937715
424	C	0.912275	0.812269	0.004929
425	C	0.949578	0.836931	0.700498
426	C	0.973043	0.884348	0.70064
427	C	0.95996	0.909088	0.005575
428	C	0.922264	0.88421	0.97706
429	C	0.898914	0.836804	0.976715
430	H	0.960342	0.82048	0.721447
431	H	0.999553	0.900695	0.722425
432	H	0.911781	0.900457	0.955512
433	H	0.832834	0.677459	0.743913
434	H	0.871655	0.820275	0.955843
435	H	0.873465	0.757839	0.74171
436	N	0.901068	0.761233	0.923309
437	O	0.870985	0.751492	0.894046
438	O	0.929516	0.751909	0.907776
439	C	0.48867	0.17388	0.684149
440	C	0.495984	0.154923	0.978332
441	C	0.53212	0.146534	0.976292
442	C	0.562421	0.157299	0.679649
443	C	0.553907	0.174364	0.720087
444	C	0.517027	0.182069	0.721864
445	H	0.513534	0.1979	0.749661
446	C	0.604634	0.159193	0.672412
447	C	0.633038	0.186456	0.970415
448	C	0.678084	0.196742	0.967658
449	C	0.696524	0.180418	0.666999
450	C	0.667573	0.150815	0.700643
451	C	0.622249	0.140252	0.703164
452	H	0.622338	0.202196	0.948407
453	H	0.698302	0.219278	0.943606
454	H	0.680131	0.139751	0.725819
455	H	0.477817	0.151139	0.949547
456	H	0.603013	0.121038	0.729608
457	H	0.538255	0.135779	0.946224
458	N	0.584555	0.187781	0.756773
459	O	0.565477	0.16682	0.792329
460	O	0.602975	0.229302	0.764369
461	C	0.83978	0.318481	0.684366
462	C	0.858698	0.344693	0.978495
463	C	0.866972	0.389167	0.976397
464	C	0.856356	0.408794	0.679785
465	C	0.839391	0.383271	0.720267
466	C	0.831683	0.338699	0.722073
467	H	0.815878	0.3194	0.749888
468	C	0.854457	0.449093	0.67249
469	C	0.827196	0.450223	0.970476
470	C	0.816871	0.484949	0.967729
471	C	0.833241	0.519749	0.667033
472	C	0.862932	0.520472	0.700623
473	C	0.873388	0.485652	0.703225
474	H	0.811318	0.423721	0.948569
475	H	0.794248	0.482581	0.943744
476	H	0.873989	0.544105	0.725778
477	H	0.86232	0.330282	0.949652
478	H	0.892717	0.485709	0.729605
479	H	0.877672	0.405995	0.946289
480	N	0.82605	0.400543	0.756969
481	O	0.847094	0.402473	0.792481
482	O	0.784533	0.377458	0.764656
483	C	0.695101	0.524909	0.684345
484	C	0.668891	0.517664	0.978488
485	C	0.624405	0.481475	0.9764
486	C	0.604803	0.451179	0.679751
487	C	0.630359	0.459715	0.720219
488	C	0.674916	0.496624	0.722077
489	H	0.694232	0.500025	0.749851
490	C	0.564523	0.408955	0.672473
491	C	0.563343	0.380633	0.970381
492	C	0.528601	0.335596	0.967627
493	C	0.49382	0.317136	0.666958
494	C	0.493089	0.346096	0.700555
495	C	0.52794	0.391357	0.703187
496	H	0.589835	0.391269	0.948454
497	H	0.530954	0.31536	0.943619
498	H	0.469553	0.33351	0.725805
499	H	0.683308	0.535703	0.949652
500	H	0.527933	0.410566	0.729645
501	H	0.607564	0.475319	0.946299
502	N	0.613108	0.429046	0.756875
503	O	0.611141	0.448074	0.79243
504	O	0.636244	0.410657	0.764501
