data_C144H81N45O36_2018-02-15_10:32:30
#******************************************
#
# CIF file created by Zeo++
# Zeo++ is an open source package to
# analyze microporous materials
#
#*******************************************

_cell_length_a		29.2024   
_cell_length_b		29.203   
_cell_length_c		30.137   
_cell_angle_alpha		90   
_cell_angle_beta		90   
_cell_angle_gamma		120   

_symmetry_space_group_name_H-M		'P1'
_symmetry_Int_Tables_number		1
_symmetry_cell_setting		Monoclinic

loop_
_symmetry_equiv_pos_as_xyz
'+x,+y,+z'

loop_
_atom_site_label
_atom_site_type_symbol
_atom_site_fract_x
_atom_site_fract_y
_atom_site_fract_z
1	C	0.27591	0.634327	0.969241
2	N	0.30639	0.611322	0.969589
3	C	0.359979	0.640464	0.302554
4	N	0.382985	0.693942	0.969586
5	C	0.353854	0.718402	0.969231
6	N	0.300369	0.687916	0.969606
7	C	0.391641	0.616791	0.973196
8	C	0.377542	0.773731	0.306568
9	C	0.220573	0.602687	0.973219
10	O	0.346011	0.794833	0.966453
11	O	0.199476	0.550059	0.966423
12	O	0.44426	0.64832	0.966341
13	C	0.716297	0.366166	0.004272
14	N	0.680952	0.383436	0.004092
15	C	0.628098	0.348955	0.337678
16	N	0.610834	0.296347	0.004076
17	C	0.64531	0.277972	0.004255
18	N	0.697923	0.313313	0.004005
19	C	0.591757	0.367176	0.003078
20	C	0.627061	0.223408	0.336231
21	C	0.770857	0.402498	0.002929
22	O	0.66083	0.207885	0.987613
23	O	0.786372	0.45184	0.987779
24	O	0.542415	0.33337	0.987915
25	C	0.569925	0.434521	0.016533
26	C	0.552252	0.442845	0.308787
27	C	0.516552	0.46167	0.30734
28	C	0.497224	0.472029	0.013568
29	C	0.514737	0.463631	0.055207
30	C	0.551562	0.445526	0.056119
31	H	0.563919	0.438879	0.085972
32	C	0.462845	0.493073	0.009947
33	C	0.416078	0.467134	0.317663
34	C	0.385216	0.490977	0.310161
35	C	0.40102	0.54181	0.327176
36	C	0.446456	0.566575	0.021143
37	C	0.477321	0.542827	0.028714
38	H	0.404635	0.431089	0.303589
39	H	0.352235	0.471946	0.290653
40	H	0.45789	0.602541	0.035268
41	H	0.565878	0.435913	0.279721
42	H	0.511417	0.563095	0.046737
43	H	0.505423	0.468467	0.276944
44	N	0.493881	0.471551	0.095052
45	O	0.529701	0.505489	0.11943
46	O	0.468866	0.429243	0.11661
47	N	0.371465	0.565096	0.318098
48	H	0.333158	0.54221	0.319128
49	N	0.604396	0.416123	0.017825
50	H	0.637087	0.436926	0.034464
51	C	0.559772	0.134239	0.016356
52	C	0.551457	0.108172	0.308647
53	C	0.532658	0.053651	0.307276
54	C	0.522362	0.024047	0.013546
55	C	0.530775	0.050036	0.055148
56	C	0.54879	0.104947	0.055983
57	H	0.555484	0.124012	0.085809
58	C	0.50134	0.968621	0.010001
59	C	0.527271	0.947768	0.317739
60	C	0.503425	0.893056	0.310275
61	C	0.452559	0.858055	0.327254
62	C	0.427829	0.878746	0.021239
63	C	0.451598	0.933363	0.028799
64	H	0.563271	0.972358	0.303595
65	H	0.522381	0.879102	0.290681
66	H	0.391852	0.854231	0.035358
67	H	0.558308	0.128661	0.279552
68	H	0.431333	0.947206	0.046806
69	H	0.525836	0.035666	0.276906
70	N	0.522921	0.021343	0.095031
71	O	0.488973	0.023216	0.119401
72	O	0.56525	0.038733	0.116573
73	N	0.429238	0.805217	0.318159
74	H	0.452112	0.78978	0.319161
75	N	0.578059	0.187099	0.017548
76	H	0.557436	0.198984	0.034451
77	C	0.86004	0.424364	0.016378
78	C	0.886094	0.442109	0.308662
79	C	0.940614	0.477834	0.307276
80	C	0.970232	0.497161	0.013539
81	C	0.94426	0.479578	0.055147
82	C	0.889347	0.442698	0.055997
83	H	0.870294	0.43031	0.085827
84	C	0.025662	0.531542	0.009976
85	C	0.046515	0.57833	0.317716
86	C	0.101228	0.609203	0.310253
87	C	0.136237	0.593351	0.327234
88	C	0.115547	0.547915	0.021202
89	C	0.060929	0.51705	0.028744
90	H	0.021922	0.589745	0.303586
91	H	0.115181	0.642124	0.29067
92	H	0.140072	0.53648	0.035344
93	H	0.865587	0.428484	0.279573
94	H	0.047089	0.482974	0.046793
95	H	0.958585	0.489004	0.276901
96	N	0.972973	0.500412	0.095024
97	O	0.971099	0.464584	0.119385
98	O	0.9556	0.525358	0.116579
99	N	0.189079	0.622884	0.318153
100	H	0.204511	0.661195	0.31917
101	N	0.807175	0.389832	0.017593
102	H	0.795346	0.357217	0.034328
103	C	0.27591	0.634327	0.302575
104	N	0.30639	0.611322	0.302923
105	C	0.359979	0.640464	0.635886
106	N	0.382985	0.693942	0.30292
107	C	0.353854	0.718402	0.302566
108	N	0.300369	0.687916	0.302939
109	C	0.391641	0.616791	0.30653
110	C	0.377542	0.773731	0.639901
111	C	0.220573	0.602687	0.306554
112	O	0.346011	0.794833	0.299786
113	O	0.199476	0.550059	0.299755
114	O	0.44426	0.64832	0.299674
115	C	0.716297	0.366166	0.337605
116	N	0.680952	0.383436	0.337426
117	C	0.628098	0.348955	0.671009
118	N	0.610834	0.296347	0.337409
119	C	0.64531	0.277972	0.337588
120	N	0.697923	0.313313	0.33734
121	C	0.591757	0.367176	0.33641
122	C	0.627061	0.223408	0.669562
123	C	0.770857	0.402498	0.336261
124	O	0.66083	0.207885	0.320945
125	O	0.786372	0.45184	0.321112
126	O	0.542415	0.33337	0.321248
127	C	0.569925	0.434521	0.349866
128	C	0.552252	0.442845	0.642121
129	C	0.516552	0.46167	0.640674
130	C	0.497224	0.472029	0.346903
131	C	0.514737	0.463631	0.388539
132	C	0.551562	0.445526	0.389452
133	H	0.563919	0.438879	0.419305
134	C	0.462845	0.493073	0.343282
135	C	0.416078	0.467134	0.650997
136	C	0.385216	0.490977	0.643495
137	C	0.40102	0.54181	0.66051
138	C	0.446456	0.566575	0.354475
139	C	0.477321	0.542827	0.362047
140	H	0.404635	0.431089	0.636921
141	H	0.352235	0.471946	0.623987
142	H	0.45789	0.602541	0.3686
143	H	0.565878	0.435913	0.613054
144	H	0.511417	0.563095	0.380071
145	H	0.505423	0.468467	0.610276
146	N	0.493881	0.471551	0.428384
147	O	0.529701	0.505489	0.452762
148	O	0.468866	0.429243	0.449942
149	N	0.371465	0.565096	0.651432
150	H	0.333158	0.54221	0.652461
151	N	0.604396	0.416123	0.35116
152	H	0.637087	0.436926	0.367797
153	C	0.559772	0.134239	0.34969
154	C	0.551457	0.108172	0.641982
155	C	0.532658	0.053651	0.640611
156	C	0.522362	0.024047	0.346879
157	C	0.530775	0.050036	0.388483
158	C	0.54879	0.104947	0.389316
159	H	0.555484	0.124012	0.419143
160	C	0.50134	0.968621	0.343335
161	C	0.527271	0.947768	0.651074
162	C	0.503425	0.893056	0.643608
163	C	0.452559	0.858055	0.660587
164	C	0.427829	0.878746	0.354571
165	C	0.451598	0.933363	0.362133
166	H	0.563271	0.972358	0.636928
167	H	0.522381	0.879102	0.624014
168	H	0.391852	0.854231	0.368693
169	H	0.558308	0.128661	0.612885
170	H	0.431333	0.947206	0.380141
171	H	0.525836	0.035666	0.61024
172	N	0.522921	0.021343	0.428364
173	O	0.488973	0.023216	0.452733
174	O	0.56525	0.038733	0.449905
175	N	0.429238	0.805217	0.651492
176	H	0.452112	0.78978	0.652494
177	N	0.578059	0.187099	0.350881
178	H	0.557436	0.198984	0.367784
179	C	0.86004	0.424364	0.34971
180	C	0.886094	0.442109	0.641995
181	C	0.940614	0.477834	0.640608
182	C	0.970232	0.497161	0.346873
183	C	0.94426	0.479578	0.388479
184	C	0.889347	0.442698	0.389332
185	H	0.870294	0.43031	0.419159
186	C	0.025662	0.531542	0.343309
187	C	0.046515	0.57833	0.65105
188	C	0.101228	0.609203	0.643584
189	C	0.136237	0.593351	0.660567
190	C	0.115547	0.547915	0.354534
191	C	0.060929	0.51705	0.362077
192	H	0.021922	0.589745	0.636918
193	H	0.115181	0.642124	0.624004
194	H	0.140072	0.53648	0.368676
195	H	0.865587	0.428484	0.612904
196	H	0.047089	0.482974	0.380127
197	H	0.958585	0.489004	0.610233
198	N	0.972973	0.500412	0.428357
199	O	0.971099	0.464584	0.452719
200	O	0.9556	0.525358	0.449912
201	N	0.189079	0.622884	0.651485
202	H	0.204511	0.661195	0.652504
203	N	0.807175	0.389832	0.350927
204	H	0.795346	0.357217	0.367661
205	C	0.27591	0.634327	0.635909
206	N	0.30639	0.611322	0.636255
207	C	0.359979	0.640464	0.969221
208	N	0.382985	0.693942	0.636255
209	C	0.353854	0.718402	0.635899
210	N	0.300369	0.687916	0.636271
211	C	0.391641	0.616791	0.639861
212	C	0.377542	0.773731	0.973236
213	C	0.220573	0.602687	0.639888
214	O	0.346011	0.794833	0.633119
215	O	0.199476	0.550059	0.633089
216	O	0.44426	0.64832	0.633006
217	C	0.716297	0.366166	0.670939
218	N	0.680952	0.383436	0.67076
219	C	0.628098	0.348955	0.004343
220	N	0.610834	0.296347	0.670744
221	C	0.64531	0.277972	0.670923
222	N	0.697923	0.313313	0.670671
223	C	0.591757	0.367176	0.669745
224	C	0.627061	0.223408	0.002896
225	C	0.770857	0.402498	0.669596
226	O	0.66083	0.207885	0.654279
227	O	0.786372	0.45184	0.654445
228	O	0.542415	0.33337	0.654581
229	C	0.569925	0.434521	0.6832
230	C	0.552252	0.442845	0.975452
231	C	0.516552	0.46167	0.974006
232	C	0.497224	0.472029	0.680234
233	C	0.514737	0.463631	0.721874
234	C	0.551562	0.445526	0.722786
235	H	0.563919	0.438879	0.75264
236	C	0.462845	0.493073	0.676614
237	C	0.416078	0.467134	0.984328
238	C	0.385216	0.490977	0.976826
239	C	0.40102	0.54181	0.993842
240	C	0.446456	0.566575	0.687809
241	C	0.477321	0.542827	0.695381
242	H	0.404635	0.431089	0.970256
243	H	0.352235	0.471946	0.957318
244	H	0.45789	0.602541	0.701935
245	H	0.565878	0.435913	0.946388
246	H	0.511417	0.563095	0.713402
247	H	0.505423	0.468467	0.943611
248	N	0.493881	0.471551	0.761718
249	O	0.529701	0.505489	0.786097
250	O	0.468866	0.429243	0.783276
251	N	0.371465	0.565096	0.984763
252	H	0.333158	0.54221	0.985795
253	N	0.604396	0.416123	0.684491
254	H	0.637087	0.436926	0.701132
255	C	0.559772	0.134239	0.683021
256	C	0.551457	0.108172	0.975313
257	C	0.532658	0.053651	0.973942
258	C	0.522362	0.024047	0.680214
259	C	0.530775	0.050036	0.721814
260	C	0.54879	0.104947	0.72265
261	H	0.555484	0.124012	0.752477
262	C	0.50134	0.968621	0.676667
263	C	0.527271	0.947768	0.984405
264	C	0.503425	0.893056	0.976942
265	C	0.452559	0.858055	0.993921
266	C	0.427829	0.878746	0.687905
267	C	0.451598	0.933363	0.695464
268	H	0.563271	0.972358	0.970263
269	H	0.522381	0.879102	0.957348
270	H	0.391852	0.854231	0.702024
271	H	0.558308	0.128661	0.946219
272	H	0.431333	0.947206	0.713472
273	H	0.525836	0.035666	0.943571
274	N	0.522921	0.021343	0.761698
275	O	0.488973	0.023216	0.786067
276	O	0.56525	0.038733	0.78324
277	N	0.429238	0.805217	0.984826
278	H	0.452112	0.78978	0.985828
279	N	0.578059	0.187099	0.684216
280	H	0.557436	0.198984	0.701118
281	C	0.86004	0.424364	0.683044
282	C	0.886094	0.442109	0.975329
283	C	0.940614	0.477834	0.973942
284	C	0.970232	0.497161	0.680204
285	C	0.94426	0.479578	0.721814
286	C	0.889347	0.442698	0.722663
287	H	0.870294	0.43031	0.752494
288	C	0.025662	0.531542	0.676643
289	C	0.046515	0.57833	0.984381
290	C	0.101228	0.609203	0.976919
291	C	0.136237	0.593351	0.993901
292	C	0.115547	0.547915	0.687869
293	C	0.060929	0.51705	0.695411
294	H	0.021922	0.589745	0.970253
295	H	0.115181	0.642124	0.957335
296	H	0.140072	0.53648	0.702011
297	H	0.865587	0.428484	0.946239
298	H	0.047089	0.482974	0.713459
299	H	0.958585	0.489004	0.943568
300	N	0.972973	0.500412	0.761692
301	O	0.971099	0.464584	0.786054
302	O	0.9556	0.525358	0.783247
303	N	0.189079	0.622884	0.984819
304	H	0.204511	0.661195	0.985838
305	N	0.807175	0.389832	0.684259
306	H	0.795346	0.357217	0.700996
