data_C288H198N90_2018-02-15_10:44:58
#******************************************
#
# CIF file created by Zeo++
# Zeo++ is an open source package to
# analyze microporous materials
#
#*******************************************

_cell_length_a		45.2087   
_cell_length_b		45.2086   
_cell_length_c		29.926   
_cell_angle_alpha		90   
_cell_angle_beta		90   
_cell_angle_gamma		120   

_symmetry_space_group_name_H-M		'P1'
_symmetry_Int_Tables_number		1
_symmetry_cell_setting		Monoclinic

loop_
_symmetry_equiv_pos_as_xyz
'+x,+y,+z'

loop_
_atom_site_label
_atom_site_type_symbol
_atom_site_fract_x
_atom_site_fract_y
_atom_site_fract_z
1	N	0.009474	0.033162	0.002372
2	N	0.020195	0.987653	0.002378
3	N	0.009474	0.033162	0.335704
4	N	0.020195	0.987653	0.335711
5	N	0.009474	0.033162	0.66904
6	N	0.020195	0.987653	0.669046
7	C	0.032308	0.02192	0.002097
8	C	0.032308	0.02192	0.33543
9	C	0.032308	0.02192	0.668766
10	C	0.975206	0.011007	0.002099
11	N	0.963962	0.976933	0.002383
12	C	0.986118	0.964821	0.002113
13	C	0.974792	0.930322	0.004057
14	C	0.066807	0.045091	0.004036
15	C	0.952035	0.022335	0.004053
16	H	0.928528	0.006448	0.015135
17	H	0.074428	0.068598	0.015116
18	H	0.99068	0.922703	0.015129
19	C	0.45366	0.251026	0.993767
20	N	0.463957	0.227611	0.995368
21	C	0.441617	0.193503	0.997269
22	N	0.407637	0.18282	0.997055
23	C	0.396239	0.205648	0.995532
24	N	0.419585	0.239675	0.993918
25	C	0.361903	0.195382	0.994583
26	C	0.478543	0.284901	0.991939
27	C	0.454014	0.171117	0.998903
28	H	0.4388	0.146471	0.992391
29	H	0.501874	0.290316	0.982339
30	H	0.355231	0.21319	0.991732
31	C	0.746097	0.203252	0.993774
32	N	0.769514	0.236965	0.995371
33	C	0.80362	0.248731	0.997263
34	N	0.814302	0.225432	0.997049
35	C	0.791473	0.191206	0.995528
36	N	0.757447	0.180526	0.993924
37	C	0.801738	0.167138	0.994579
38	C	0.712222	0.194261	0.991959
39	C	0.826008	0.283514	0.9989
40	H	0.850652	0.292947	0.992374
41	H	0.706804	0.212181	0.982386
42	H	0.78393	0.142657	0.991732
43	C	0.793879	0.543469	0.993767
44	N	0.760164	0.533171	0.995368
45	C	0.748396	0.555509	0.997269
46	N	0.771696	0.589492	0.997052
47	C	0.80592	0.600889	0.995528
48	N	0.816601	0.577544	0.993918
49	C	0.829989	0.635225	0.994579
50	C	0.802869	0.518586	0.991943
51	C	0.713615	0.543114	0.998903
52	H	0.704181	0.558324	0.992391
53	H	0.784954	0.495254	0.982346
54	H	0.854469	0.641896	0.991732
55	C	0.122867	0.056059	0.325098
56	C	0.141181	0.059429	0.285514
57	C	0.177393	0.077938	0.284404
58	C	0.195539	0.092943	0.324768
59	C	0.177051	0.088963	0.031271
60	C	0.141161	0.070788	0.031453
61	H	0.189602	0.099366	0.060651
62	H	0.128432	0.067905	0.06085
63	C	0.231813	0.111667	0.326929
64	C	0.250444	0.144143	0.306666
65	C	0.286388	0.162316	0.307995
66	C	0.304615	0.148553	0.996477
67	C	0.285909	0.116048	0.01653
68	C	0.249945	0.097926	0.015516
69	H	0.237968	0.154636	0.290381
70	H	0.29911	0.185381	0.292097
71	H	0.298396	0.105263	0.032082
72	H	0.127801	0.048104	0.256935
73	H	0.237112	0.074308	0.030118
74	N	0.193325	0.07987	0.245001
75	H	0.180375	0.069121	0.217988
76	H	0.218027	0.091252	0.242601
77	N	0.3386	0.163756	0.997423
78	N	0.089024	0.037008	0.324686
79	C	0.941058	0.067421	0.325101
80	C	0.937689	0.082365	0.285517
81	C	0.919181	0.100068	0.284406
82	C	0.904175	0.103209	0.324769
83	C	0.908156	0.088702	0.031273
84	C	0.92633	0.070986	0.031456
85	H	0.897752	0.09085	0.060653
86	H	0.929214	0.06114	0.060853
87	C	0.885451	0.120759	0.32693
88	C	0.852975	0.106914	0.306669
89	C	0.834802	0.124686	0.307997
90	C	0.848566	0.156677	0.996477
91	C	0.881073	0.170476	0.016526
92	C	0.899194	0.152634	0.015514
93	H	0.842481	0.083943	0.290387
94	H	0.811738	0.114342	0.292101
95	H	0.891858	0.193749	0.032076
96	H	0.949016	0.08031	0.256938
97	H	0.922813	0.163419	0.030114
98	N	0.917248	0.114067	0.245003
99	H	0.927997	0.111866	0.217989
100	H	0.905865	0.127386	0.242603
101	N	0.833365	0.17546	0.99742
102	N	0.960111	0.052631	0.32469
103	C	0.929703	0.874261	0.325109
104	C	0.914761	0.85595	0.285523
105	C	0.897057	0.819737	0.28441
106	C	0.893916	0.80159	0.324771
107	C	0.908423	0.820074	0.031276
108	C	0.926138	0.855965	0.031462
109	H	0.906275	0.807523	0.060655
110	H	0.935983	0.868693	0.060861
111	C	0.876365	0.765316	0.32693
112	C	0.890209	0.746686	0.306665
113	C	0.872438	0.710741	0.307993
114	C	0.840448	0.692512	0.996474
115	C	0.826648	0.711218	0.016528
116	C	0.844491	0.747184	0.015515
117	H	0.913178	0.75916	0.290381
118	H	0.882782	0.698019	0.292095
119	H	0.803378	0.698734	0.03208
120	H	0.916815	0.869331	0.256946
121	H	0.833707	0.760016	0.030118
122	N	0.883059	0.803809	0.245005
123	H	0.88526	0.816759	0.217993
124	H	0.869738	0.779106	0.242603
125	N	0.821664	0.658529	0.99742
126	N	0.944494	0.908103	0.324702
127	C	0.655213	0.156776	0.007408
128	C	0.63963	0.152756	0.049468
129	C	0.607171	0.150108	0.053826
130	C	0.58986	0.151156	0.014501
131	C	0.604826	0.153253	0.305549
132	C	0.637054	0.155921	0.301995
133	H	0.593529	0.15534	0.276967
134	H	0.648269	0.159726	0.271225
135	C	0.561316	0.156371	0.016077
136	C	0.565508	0.186919	0.034903
137	C	0.539028	0.194593	0.033012
138	C	0.507674	0.171953	0.345726
139	C	0.503178	0.141289	0.326975
140	C	0.529892	0.133728	0.328519
141	H	0.588338	0.204456	0.048814
142	H	0.543239	0.217416	0.045742
143	H	0.481101	0.125071	0.310492
144	H	0.653047	0.153768	0.077575
145	H	0.526492	0.111882	0.313568
146	N	0.593956	0.147157	0.095541
147	H	0.606046	0.146239	0.121953
148	H	0.571206	0.143787	0.10021
149	N	0.485662	0.182973	0.341793
150	N	0.687944	0.165255	0.005791
151	C	0.840347	0.499055	0.007411
152	C	0.844364	0.487487	0.04947
153	C	0.847012	0.457675	0.053826
154	C	0.845968	0.439321	0.014499
155	C	0.843876	0.452194	0.305548
156	C	0.841206	0.481755	0.301996
157	H	0.84179	0.438812	0.276964
158	H	0.837405	0.489168	0.271227
159	C	0.840751	0.405562	0.016071
160	C	0.810202	0.379206	0.034891
161	C	0.802528	0.345052	0.033
162	C	0.82517	0.336337	0.345719
163	C	0.855837	0.362509	0.326974
164	C	0.863397	0.396781	0.328518
165	H	0.792662	0.384498	0.048799
166	H	0.779705	0.326439	0.045727
167	H	0.872058	0.35665	0.310496
168	H	0.843348	0.49989	0.077578
169	H	0.885244	0.415227	0.313572
170	N	0.84996	0.44741	0.09554
171	H	0.850875	0.460415	0.121954
172	H	0.85333	0.428031	0.100207
173	N	0.814153	0.303309	0.341793
174	N	0.831867	0.523309	0.005798
175	C	0.498078	0.34191	0.007414
176	C	0.50964	0.357493	0.049474
177	C	0.53945	0.389954	0.053831
178	C	0.55781	0.407266	0.014505
179	C	0.54494	0.392298	0.305554
180	C	0.515378	0.360068	0.302001
181	H	0.558323	0.403593	0.276971
182	H	0.507969	0.348855	0.271232
183	C	0.591566	0.435809	0.01608
184	C	0.617923	0.431617	0.034906
185	C	0.652078	0.458099	0.033013
186	C	0.660791	0.489451	0.345726
187	C	0.63462	0.493944	0.326976
188	C	0.600348	0.467232	0.328521
189	H	0.61263	0.408786	0.048817
190	H	0.670689	0.453887	0.045744
191	H	0.640479	0.516022	0.310493
192	H	0.497234	0.344076	0.077581
193	H	0.581901	0.470632	0.31357
194	N	0.549714	0.403169	0.095545
195	H	0.536708	0.39108	0.121958
196	H	0.569092	0.425919	0.100213
197	N	0.693821	0.511463	0.341793
198	N	0.473823	0.309176	0.005802
199	C	0.975206	0.011007	0.335434
200	N	0.963962	0.976933	0.335718
201	C	0.986118	0.964821	0.335447
202	C	0.974792	0.930322	0.337392
203	C	0.066807	0.045091	0.337369
204	C	0.952035	0.022335	0.337385
205	H	0.928528	0.006448	0.348469
206	H	0.074428	0.068598	0.348449
207	H	0.99068	0.922703	0.348463
208	C	0.45366	0.251026	0.3271
209	N	0.463957	0.227611	0.328701
210	C	0.441617	0.193503	0.330601
211	N	0.407637	0.18282	0.330387
212	C	0.396239	0.205648	0.328864
213	N	0.419585	0.239675	0.327251
214	C	0.361903	0.195382	0.327914
215	C	0.478543	0.284901	0.325273
216	C	0.454014	0.171117	0.332236
217	H	0.4388	0.146471	0.325723
218	H	0.501874	0.290316	0.315672
219	H	0.355231	0.21319	0.325066
220	C	0.746097	0.203252	0.327106
221	N	0.769514	0.236965	0.328705
222	C	0.80362	0.248731	0.330597
223	N	0.814302	0.225432	0.330381
224	C	0.791473	0.191206	0.328862
225	N	0.757447	0.180526	0.327256
226	C	0.801738	0.167138	0.327913
227	C	0.712222	0.194261	0.325292
228	C	0.826008	0.283514	0.332233
229	H	0.850652	0.292947	0.325705
230	H	0.706804	0.212181	0.315719
231	H	0.78393	0.142657	0.325067
232	C	0.793879	0.543469	0.3271
233	N	0.760164	0.533171	0.328701
234	C	0.748396	0.555509	0.330601
235	N	0.771696	0.589492	0.330386
236	C	0.80592	0.600889	0.328863
237	N	0.816601	0.577544	0.327251
238	C	0.829989	0.635225	0.327913
239	C	0.802869	0.518586	0.325275
240	C	0.713615	0.543114	0.332236
241	H	0.704181	0.558324	0.325723
242	H	0.784954	0.495254	0.315679
243	H	0.854469	0.641896	0.325066
244	C	0.122867	0.056059	0.65843
245	C	0.141181	0.059429	0.618849
246	C	0.177393	0.077938	0.617737
247	C	0.195539	0.092943	0.658103
248	C	0.177051	0.088963	0.364606
249	C	0.141161	0.070788	0.364786
250	H	0.189602	0.099366	0.393985
251	H	0.128432	0.067905	0.394185
252	C	0.231813	0.111667	0.660261
253	C	0.250444	0.144143	0.639998
254	C	0.286388	0.162316	0.641328
255	C	0.304615	0.148553	0.32981
256	C	0.285909	0.116048	0.349863
257	C	0.249945	0.097926	0.34885
258	H	0.237968	0.154636	0.623715
259	H	0.29911	0.185381	0.625429
260	H	0.298396	0.105263	0.365414
261	H	0.127801	0.048104	0.590269
262	H	0.237112	0.074308	0.363453
263	N	0.193325	0.07987	0.578336
264	H	0.180375	0.069121	0.55132
265	H	0.218027	0.091252	0.575934
266	N	0.3386	0.163756	0.330756
267	N	0.089024	0.037008	0.658019
268	C	0.941058	0.067421	0.658434
269	C	0.937689	0.082365	0.618849
270	C	0.919181	0.100068	0.61774
271	C	0.904175	0.103209	0.658103
272	C	0.908156	0.088702	0.364606
273	C	0.92633	0.070986	0.36479
274	H	0.897752	0.09085	0.393988
275	H	0.929214	0.06114	0.394185
276	C	0.885451	0.120759	0.660265
277	C	0.852975	0.106914	0.640002
278	C	0.834802	0.124686	0.641331
279	C	0.848566	0.156677	0.329809
280	C	0.881073	0.170476	0.349859
281	C	0.899194	0.152634	0.348847
282	H	0.842481	0.083943	0.623721
283	H	0.811738	0.114342	0.625436
284	H	0.891858	0.193749	0.365411
285	H	0.949016	0.08031	0.590272
286	H	0.922813	0.163419	0.363446
287	N	0.917248	0.114067	0.578336
288	H	0.927997	0.111866	0.551323
289	H	0.905865	0.127386	0.575937
290	N	0.833365	0.17546	0.330754
291	N	0.960111	0.052631	0.658023
292	C	0.929703	0.874261	0.658444
293	C	0.914761	0.85595	0.618856
294	C	0.897057	0.819737	0.617743
295	C	0.893916	0.80159	0.658106
296	C	0.908423	0.820074	0.364609
297	C	0.926138	0.855965	0.364796
298	H	0.906275	0.807523	0.393988
299	H	0.935983	0.868693	0.394195
300	C	0.876365	0.765316	0.660261
301	C	0.890209	0.746686	0.639998
302	C	0.872438	0.710741	0.641328
303	C	0.840448	0.692512	0.329808
304	C	0.826648	0.711218	0.349863
305	C	0.844491	0.747184	0.34885
306	H	0.913178	0.75916	0.623715
307	H	0.882782	0.698019	0.625429
308	H	0.803378	0.698734	0.365414
309	H	0.916815	0.869331	0.590279
310	H	0.833707	0.760016	0.363453
311	N	0.883059	0.803809	0.578339
312	H	0.88526	0.816759	0.551326
313	H	0.869738	0.779106	0.575937
314	N	0.821664	0.658529	0.330753
315	N	0.944494	0.908103	0.658036
316	C	0.655213	0.156776	0.34074
317	C	0.63963	0.152756	0.382801
318	C	0.607171	0.150108	0.387158
319	C	0.58986	0.151156	0.347834
320	C	0.604826	0.153253	0.638882
321	C	0.637054	0.155921	0.63533
322	H	0.593529	0.15534	0.610302
323	H	0.648269	0.159726	0.604561
324	C	0.561316	0.156371	0.349412
325	C	0.565508	0.186919	0.368238
326	C	0.539028	0.194593	0.366347
327	C	0.507674	0.171953	0.679058
328	C	0.503178	0.141289	0.660308
329	C	0.529892	0.133728	0.661852
330	H	0.588338	0.204456	0.382149
331	H	0.543239	0.217416	0.379075
332	H	0.481101	0.125071	0.643824
333	H	0.653047	0.153768	0.41091
334	H	0.526492	0.111882	0.646902
335	N	0.593956	0.147157	0.428874
336	H	0.606046	0.146239	0.455286
337	H	0.571206	0.143787	0.433542
338	N	0.485662	0.182973	0.675128
339	N	0.687944	0.165255	0.339126
340	C	0.840347	0.499055	0.340744
341	C	0.844364	0.487487	0.382804
342	C	0.847012	0.457675	0.387158
343	C	0.845968	0.439321	0.347831
344	C	0.843876	0.452194	0.638882
345	C	0.841206	0.481755	0.63533
346	H	0.84179	0.438812	0.610298
347	H	0.837405	0.489168	0.604561
348	C	0.840751	0.405562	0.349405
349	C	0.810202	0.379206	0.368225
350	C	0.802528	0.345052	0.366333
351	C	0.82517	0.336337	0.679051
352	C	0.855837	0.362509	0.660308
353	C	0.863397	0.396781	0.661852
354	H	0.792662	0.384498	0.382132
355	H	0.779705	0.326439	0.379061
356	H	0.872058	0.35665	0.643831
357	H	0.843348	0.49989	0.410913
358	H	0.885244	0.415227	0.646905
359	N	0.84996	0.44741	0.428874
360	H	0.850875	0.460415	0.455286
361	H	0.85333	0.428031	0.433542
362	N	0.814153	0.303309	0.675125
363	N	0.831867	0.523309	0.339133
364	C	0.498078	0.34191	0.340747
365	C	0.50964	0.357493	0.382807
366	C	0.53945	0.389954	0.387165
367	C	0.55781	0.407266	0.347838
368	C	0.54494	0.392298	0.638889
369	C	0.515378	0.360068	0.635333
370	H	0.558323	0.403593	0.610305
371	H	0.507969	0.348855	0.604564
372	C	0.591566	0.435809	0.349412
373	C	0.617923	0.431617	0.368238
374	C	0.652078	0.458099	0.366347
375	C	0.660791	0.489451	0.679061
376	C	0.63462	0.493944	0.660308
377	C	0.600348	0.467232	0.661855
378	H	0.61263	0.408786	0.382149
379	H	0.670689	0.453887	0.379078
380	H	0.640479	0.516022	0.643828
381	H	0.497234	0.344076	0.410917
382	H	0.581901	0.470632	0.646905
383	N	0.549714	0.403169	0.428878
384	H	0.536708	0.39108	0.455293
385	H	0.569092	0.425919	0.433546
386	N	0.693821	0.511463	0.675128
387	N	0.473823	0.309176	0.339136
388	C	0.975206	0.011007	0.668766
389	N	0.963962	0.976933	0.66905
390	C	0.986118	0.964821	0.668779
391	C	0.974792	0.930322	0.670724
392	C	0.066807	0.045091	0.670704
393	C	0.952035	0.022335	0.670721
394	H	0.928528	0.006448	0.681801
395	H	0.074428	0.068598	0.681785
396	H	0.99068	0.922703	0.681795
397	C	0.45366	0.251026	0.660432
398	N	0.463957	0.227611	0.662036
399	C	0.441617	0.193503	0.663934
400	N	0.407637	0.18282	0.66372
401	C	0.396239	0.205648	0.662196
402	N	0.419585	0.239675	0.660586
403	C	0.361903	0.195382	0.661247
404	C	0.478543	0.284901	0.658607
405	C	0.454014	0.171117	0.665571
406	H	0.4388	0.146471	0.659055
407	H	0.501874	0.290316	0.649007
408	H	0.355231	0.21319	0.6584
409	C	0.746097	0.203252	0.660439
410	N	0.769514	0.236965	0.662039
411	C	0.80362	0.248731	0.663931
412	N	0.814302	0.225432	0.663713
413	C	0.791473	0.191206	0.662196
414	N	0.757447	0.180526	0.660589
415	C	0.801738	0.167138	0.661247
416	C	0.712222	0.194261	0.658627
417	C	0.826008	0.283514	0.665568
418	H	0.850652	0.292947	0.659038
419	H	0.706804	0.212181	0.649054
420	H	0.78393	0.142657	0.6584
421	C	0.793879	0.543469	0.660432
422	N	0.760164	0.533171	0.662036
423	C	0.748396	0.555509	0.663934
424	N	0.771696	0.589492	0.66372
425	C	0.80592	0.600889	0.662196
426	N	0.816601	0.577544	0.660586
427	C	0.829989	0.635225	0.661247
428	C	0.802869	0.518586	0.658607
429	C	0.713615	0.543114	0.665568
430	H	0.704181	0.558324	0.659055
431	H	0.784954	0.495254	0.649014
432	H	0.854469	0.641896	0.6584
433	C	0.122867	0.056059	0.991766
434	C	0.141181	0.059429	0.952181
435	C	0.177393	0.077938	0.951072
436	C	0.195539	0.092943	0.991435
437	C	0.177051	0.088963	0.697938
438	C	0.141161	0.070788	0.698122
439	H	0.189602	0.099366	0.727317
440	H	0.128432	0.067905	0.727517
441	C	0.231813	0.111667	0.993597
442	C	0.250444	0.144143	0.973334
443	C	0.286388	0.162316	0.974663
444	C	0.304615	0.148553	0.663142
445	C	0.285909	0.116048	0.683198
446	C	0.249945	0.097926	0.682182
447	H	0.237968	0.154636	0.957047
448	H	0.29911	0.185381	0.958764
449	H	0.298396	0.105263	0.69875
450	H	0.127801	0.048104	0.923601
451	H	0.237112	0.074308	0.696785
452	N	0.193325	0.07987	0.911668
453	H	0.180375	0.069121	0.884655
454	H	0.218027	0.091252	0.909269
455	N	0.3386	0.163756	0.664091
456	N	0.089024	0.037008	0.991355
457	C	0.941058	0.067421	0.991769
458	C	0.937689	0.082365	0.952185
459	C	0.919181	0.100068	0.951072
460	C	0.904175	0.103209	0.991435
461	C	0.908156	0.088702	0.697941
462	C	0.92633	0.070986	0.698122
463	H	0.897752	0.09085	0.72732
464	H	0.929214	0.06114	0.727521
465	C	0.885451	0.120759	0.993597
466	C	0.852975	0.106914	0.973337
467	C	0.834802	0.124686	0.974663
468	C	0.848566	0.156677	0.663142
469	C	0.881073	0.170476	0.683195
470	C	0.899194	0.152634	0.682182
471	H	0.842481	0.083943	0.957053
472	H	0.811738	0.114342	0.958768
473	H	0.891858	0.193749	0.698743
474	H	0.949016	0.08031	0.923604
475	H	0.922813	0.163419	0.696782
476	N	0.917248	0.114067	0.911671
477	H	0.927997	0.111866	0.884655
478	H	0.905865	0.127386	0.909269
479	N	0.833365	0.17546	0.664088
480	N	0.960111	0.052631	0.991358
481	C	0.929703	0.874261	0.991776
482	C	0.914761	0.85595	0.952191
483	C	0.897057	0.819737	0.951079
484	C	0.893916	0.80159	0.991438
485	C	0.908423	0.820074	0.697944
486	C	0.926138	0.855965	0.698128
487	H	0.906275	0.807523	0.727324
488	H	0.935983	0.868693	0.727527
489	C	0.876365	0.765316	0.993597
490	C	0.890209	0.746686	0.973334
491	C	0.872438	0.710741	0.97466
492	C	0.840448	0.692512	0.663142
493	C	0.826648	0.711218	0.683195
494	C	0.844491	0.747184	0.682182
495	H	0.913178	0.75916	0.95705
496	H	0.882782	0.698019	0.958761
497	H	0.803378	0.698734	0.698746
498	H	0.916815	0.869331	0.923614
499	H	0.833707	0.760016	0.696785
500	N	0.883059	0.803809	0.911671
501	H	0.88526	0.816759	0.884658
502	H	0.869738	0.779106	0.909269
503	N	0.821664	0.658529	0.664088
504	N	0.944494	0.908103	0.991368
505	C	0.655213	0.156776	0.674076
506	C	0.63963	0.152756	0.716136
507	C	0.607171	0.150108	0.720493
508	C	0.58986	0.151156	0.681166
509	C	0.604826	0.153253	0.972217
510	C	0.637054	0.155921	0.968662
511	H	0.593529	0.15534	0.943634
512	H	0.648269	0.159726	0.937893
513	C	0.561316	0.156371	0.682744
514	C	0.565508	0.186919	0.70157
515	C	0.539028	0.194593	0.699679
516	C	0.507674	0.171953	0.012392
517	C	0.503178	0.141289	0.993644
518	C	0.529892	0.133728	0.995187
519	H	0.588338	0.204456	0.715481
520	H	0.543239	0.217416	0.71241
521	H	0.481101	0.125071	0.97716
522	H	0.653047	0.153768	0.744242
523	H	0.526492	0.111882	0.980234
524	N	0.593956	0.147157	0.762206
525	H	0.606046	0.146239	0.788621
526	H	0.571206	0.143787	0.766878
527	N	0.485662	0.182973	0.008461
528	N	0.687944	0.165255	0.672458
529	C	0.840347	0.499055	0.674079
530	C	0.844364	0.487487	0.716139
531	C	0.847012	0.457675	0.720493
532	C	0.845968	0.439321	0.681166
533	C	0.843876	0.452194	0.972214
534	C	0.841206	0.481755	0.968662
535	H	0.84179	0.438812	0.94363
536	H	0.837405	0.489168	0.937896
537	C	0.840751	0.405562	0.682737
538	C	0.810202	0.379206	0.70156
539	C	0.802528	0.345052	0.699665
540	C	0.82517	0.336337	0.012385
541	C	0.855837	0.362509	0.99364
542	C	0.863397	0.396781	0.995184
543	H	0.792662	0.384498	0.715468
544	H	0.779705	0.326439	0.712393
545	H	0.872058	0.35665	0.977163
546	H	0.843348	0.49989	0.744245
547	H	0.885244	0.415227	0.980241
548	N	0.84996	0.44741	0.762206
549	H	0.850875	0.460415	0.788621
550	H	0.85333	0.428031	0.766874
551	N	0.814153	0.303309	0.008458
552	N	0.831867	0.523309	0.672465
553	C	0.498078	0.34191	0.674082
554	C	0.50964	0.357493	0.716143
555	C	0.53945	0.389954	0.720497
556	C	0.55781	0.407266	0.681173
557	C	0.54494	0.392298	0.972221
558	C	0.515378	0.360068	0.968669
559	H	0.558323	0.403593	0.943637
560	H	0.507969	0.348855	0.937899
561	C	0.591566	0.435809	0.682747
562	C	0.617923	0.431617	0.701573
563	C	0.652078	0.458099	0.699682
564	C	0.660791	0.489451	0.012393
565	C	0.63462	0.493944	0.993644
566	C	0.600348	0.467232	0.995187
567	H	0.61263	0.408786	0.715484
568	H	0.670689	0.453887	0.71241
569	H	0.640479	0.516022	0.97716
570	H	0.497234	0.344076	0.744249
571	H	0.581901	0.470632	0.980237
572	N	0.549714	0.403169	0.762213
573	H	0.536708	0.39108	0.788625
574	H	0.569092	0.425919	0.766881
575	N	0.693821	0.511463	0.008461
576	N	0.473823	0.309176	0.672468
