data_C252H108N72_2018-02-15_10:39:35
#******************************************
#
# CIF file created by Zeo++
# Zeo++ is an open source package to
# analyze microporous materials
#
#*******************************************

_cell_length_a		34.0042   
_cell_length_b		34.0147   
_cell_length_c		29.7392   
_cell_angle_alpha		90   
_cell_angle_beta		90   
_cell_angle_gamma		119.993   

_symmetry_space_group_name_H-M		'P1'
_symmetry_Int_Tables_number		1
_symmetry_cell_setting		Monoclinic

loop_
_symmetry_equiv_pos_as_xyz
'+x,+y,+z'

loop_
_atom_site_label
_atom_site_type_symbol
_atom_site_fract_x
_atom_site_fract_y
_atom_site_fract_z
1	H	0.746081	0.259683	0.003851
2	H	0.746067	0.488474	0.003952
3	C	0.314053	0.158079	0.04488
4	N	0.267887	0.134975	0.044503
5	C	0.243006	0.122545	0.005963
6	C	0.195035	0.098533	0.00599
7	N	0.170213	0.086087	0.044564
8	C	0.124051	0.062981	0.045009
9	C	0.847678	0.158089	0.044879
10	N	0.870734	0.134983	0.044501
11	C	0.883177	0.122546	0.005962
12	C	0.907133	0.098533	0.005989
13	N	0.919518	0.086096	0.044563
14	C	0.942571	0.06299	0.045009
15	C	0.847598	0.691609	0.044844
16	N	0.870673	0.737761	0.044474
17	C	0.883128	0.762639	0.005938
18	C	0.907106	0.810596	0.005973
19	N	0.919497	0.835406	0.04455
20	C	0.942571	0.881554	0.045002
21	C	0.625057	0.165025	0.045237
22	C	0.668929	0.17052	0.045597
23	C	0.485173	0.172616	0.004565
24	C	0.505255	0.170527	0.045485
25	C	0.543632	0.165026	0.045187
26	C	0.840711	0.462103	0.045211
27	C	0.835188	0.500446	0.045573
28	C	0.833154	0.314679	0.004531
29	C	0.835172	0.336834	0.045439
30	C	0.840707	0.380707	0.045151
31	C	0.543585	0.380649	0.045195
32	C	0.505238	0.336779	0.045503
33	C	0.691033	0.520515	0.004728
34	C	0.668855	0.500399	0.045612
35	C	0.624978	0.462065	0.045261
36	C	0.691079	0.172626	0.004681
37	C	0.833157	0.520545	0.004665
38	C	0.48519	0.314688	0.004558
39	C	0.051264	0.026599	0.004245
40	C	0.978964	0.026599	0.004248
41	C	0.051264	0.026599	0.337578
42	C	0.978964	0.026599	0.337582
43	C	0.051264	0.026599	0.670913
44	C	0.978964	0.026599	0.670913
45	C	0.026962	0.050294	0.004228
46	C	0.099385	0.050659	0.337582
47	H	0.107323	0.054678	0.266651
48	H	0.107628	0.054749	0.075305
49	C	0.954905	0.050658	0.337582
50	H	0.950973	0.054662	0.266651
51	H	0.950768	0.054765	0.075305
52	C	0.026962	0.050294	0.337562
53	C	0.099385	0.050659	0.670917
54	H	0.107323	0.054678	0.599983
55	H	0.107628	0.054749	0.40864
56	C	0.954905	0.050658	0.670917
57	H	0.950973	0.054662	0.599983
58	H	0.950768	0.054765	0.40864
59	C	0.026962	0.050294	0.670896
60	C	0.099385	0.050659	0.004248
61	H	0.107323	0.054678	0.933318
62	H	0.107628	0.054749	0.741971
63	C	0.954905	0.050658	0.004248
64	H	0.950973	0.054662	0.933318
65	H	0.950768	0.054765	0.741971
66	C	0.955267	0.978615	0.004235
67	C	0.978976	0.954328	0.004248
68	C	0.026975	0.978615	0.004231
69	H	0.920457	0.961215	0.004228
70	H	0.044383	0.961215	0.004224
71	H	0.044363	0.085093	0.004224
72	C	0.458941	0.194375	0.003781
73	C	0.482382	0.242248	0.003683
74	C	0.458943	0.266692	0.003774
75	C	0.410994	0.242555	0.003878
76	C	0.386759	0.194462	0.003932
77	C	0.410996	0.17059	0.003892
78	H	0.393749	0.260095	0.00411
79	H	0.39375	0.135814	0.00413
80	H	0.517256	0.259676	0.003808
81	C	0.811415	0.266701	0.003754
82	C	0.763526	0.242256	0.003697
83	C	0.739087	0.194384	0.003814
84	C	0.763247	0.170598	0.003925
85	C	0.811356	0.194468	0.003929
86	C	0.83522	0.242563	0.003851
87	H	0.745711	0.135822	0.004194
88	H	0.870007	0.260101	0.004063
89	C	0.739032	0.546761	0.003818
90	C	0.763494	0.523335	0.003754
91	C	0.811382	0.546778	0.003797
92	C	0.835166	0.594711	0.003851
93	C	0.811277	0.618927	0.003888
94	C	0.763169	0.594694	0.003885
95	H	0.869953	0.611955	0.004073
96	H	0.74562	0.611928	0.004134
97	C	0.338651	0.170414	0.004077
98	C	0.266065	0.13411	0.297405
99	C	0.313903	0.158053	0.296705
100	H	0.330601	0.16642	0.266493
101	C	0.12407	0.063038	0.296835
102	H	0.330527	0.1663	0.075149
103	C	0.171915	0.086984	0.297464
104	N	0.196729	0.099426	0.258952
105	N	0.241203	0.121687	0.258925
106	C	0.83541	0.170419	0.004077
107	C	0.87168	0.134104	0.297403
108	C	0.847787	0.158049	0.296703
109	H	0.839453	0.166412	0.266491
110	C	0.94259	0.063028	0.296835
111	H	0.839432	0.166316	0.075147
112	C	0.918695	0.086974	0.297464
113	N	0.906319	0.099409	0.258951
114	N	0.884108	0.121672	0.258923
115	C	0.835321	0.667023	0.004036
116	C	0.871619	0.739594	0.297377
117	C	0.84771	0.691769	0.296669
118	H	0.839377	0.675082	0.266455
119	C	0.954919	0.906218	0.337578
120	C	0.942597	0.881547	0.296828
121	H	0.839352	0.675136	0.075111
122	C	0.918679	0.833715	0.29745
123	N	0.906292	0.808915	0.258935
124	N	0.884062	0.764455	0.2589
125	H	0.950979	0.898292	0.266646
126	H	0.950771	0.897969	0.0753
127	C	0.691079	0.172626	0.338012
128	C	0.667235	0.167292	0.297445
129	N	0.625024	0.16229	0.298178
130	C	0.603157	0.161121	0.336862
131	H	0.686352	0.177747	0.075371
132	C	0.561644	0.161108	0.336839
133	H	0.68277	0.171177	0.267003
134	N	0.540965	0.162268	0.298144
135	N	0.566493	0.167865	0.083619
136	N	0.60499	0.167863	0.08364
137	H	0.495051	0.17775	0.075256
138	C	0.503728	0.16722	0.297386
139	H	0.492183	0.171203	0.266927
140	C	0.833157	0.520545	0.337999
141	C	0.838593	0.502117	0.297421
142	N	0.843462	0.464835	0.298157
143	C	0.84458	0.444105	0.336835
144	H	0.82807	0.510742	0.075347
145	C	0.844594	0.402618	0.336798
146	H	0.834537	0.513648	0.266987
147	N	0.843438	0.380788	0.298105
148	N	0.837909	0.400741	0.08359
149	N	0.837912	0.439227	0.08362
150	H	0.828104	0.319435	0.075216
151	C	0.838462	0.338603	0.297355
152	H	0.834611	0.323097	0.266906
153	C	0.48519	0.314688	0.337891
154	C	0.503688	0.338578	0.297349
155	N	0.540959	0.38073	0.298135
156	C	0.561623	0.402553	0.336842
157	H	0.494901	0.319359	0.075268
158	C	0.603125	0.444047	0.336882
159	H	0.492166	0.322993	0.266914
160	N	0.625002	0.46476	0.298212
161	N	0.604888	0.439187	0.083665
162	N	0.566405	0.400697	0.083637
163	H	0.686254	0.510698	0.075393
164	C	0.667158	0.502028	0.297487
165	H	0.682762	0.513583	0.267062
166	C	0.955267	0.978615	0.337568
167	C	0.978976	0.954328	0.337582
168	C	0.026975	0.978615	0.337565
169	H	0.920457	0.961215	0.337562
170	H	0.044383	0.961215	0.337558
171	H	0.044363	0.085093	0.337558
172	C	0.458941	0.194375	0.337114
173	C	0.482382	0.242248	0.337017
174	C	0.458943	0.266692	0.337108
175	C	0.410994	0.242555	0.337212
176	C	0.386759	0.194462	0.337266
177	C	0.410996	0.17059	0.337225
178	H	0.393749	0.260095	0.337444
179	H	0.39375	0.135814	0.337464
180	H	0.517256	0.259676	0.337141
181	C	0.811415	0.266701	0.337087
182	C	0.763526	0.242256	0.337034
183	C	0.739087	0.194384	0.337151
184	C	0.763247	0.170598	0.337259
185	C	0.811356	0.194468	0.337262
186	C	0.83522	0.242563	0.337185
187	H	0.745711	0.135822	0.337528
188	H	0.870007	0.260101	0.337397
189	H	0.746081	0.259683	0.337185
190	C	0.739032	0.546761	0.337151
191	C	0.763494	0.523335	0.337087
192	C	0.811382	0.546778	0.337131
193	C	0.835166	0.594711	0.337185
194	C	0.811277	0.618927	0.337222
195	C	0.763169	0.594694	0.337219
196	H	0.869953	0.611955	0.337407
197	H	0.74562	0.611928	0.337471
198	H	0.746067	0.488474	0.337286
199	C	0.338651	0.170414	0.33741
200	C	0.314053	0.158079	0.378212
201	N	0.267887	0.134975	0.377835
202	C	0.243006	0.122545	0.339297
203	C	0.266065	0.13411	0.630737
204	C	0.313903	0.158053	0.630038
205	H	0.330601	0.16642	0.599825
206	C	0.195035	0.098533	0.339324
207	C	0.12407	0.063038	0.630169
208	H	0.330527	0.1663	0.408482
209	N	0.170213	0.086087	0.377896
210	C	0.171915	0.086984	0.630798
211	N	0.196729	0.099426	0.592286
212	N	0.241203	0.121687	0.592256
213	C	0.124051	0.062981	0.378343
214	C	0.83541	0.170419	0.33741
215	C	0.847678	0.158089	0.378212
216	N	0.870734	0.134983	0.377835
217	C	0.883177	0.122546	0.339293
218	C	0.87168	0.134104	0.630737
219	C	0.847787	0.158049	0.630034
220	H	0.839453	0.166412	0.599825
221	C	0.907133	0.098533	0.339324
222	C	0.94259	0.063028	0.630169
223	H	0.839432	0.166316	0.408482
224	N	0.919518	0.086096	0.377896
225	C	0.918695	0.086974	0.630798
226	N	0.906319	0.099409	0.592283
227	N	0.884108	0.121672	0.592256
228	C	0.942571	0.06299	0.378343
229	C	0.835321	0.667023	0.33737
230	C	0.847598	0.691609	0.378178
231	N	0.870673	0.737761	0.377808
232	C	0.883128	0.762639	0.33927
233	C	0.871619	0.739594	0.63071
234	C	0.84771	0.691769	0.630001
235	H	0.839377	0.675082	0.599788
236	C	0.907106	0.810596	0.339307
237	C	0.954919	0.906218	0.67091
238	C	0.942597	0.881547	0.630162
239	H	0.839352	0.675136	0.408445
240	N	0.919497	0.835406	0.377882
241	C	0.918679	0.833715	0.630784
242	N	0.906292	0.808915	0.592269
243	N	0.884062	0.764455	0.592232
244	H	0.950979	0.898292	0.59998
245	C	0.942571	0.881554	0.378336
246	H	0.950771	0.897969	0.408633
247	C	0.691079	0.172626	0.671347
248	C	0.667235	0.167292	0.630778
249	N	0.625024	0.16229	0.631511
250	C	0.603157	0.161121	0.670194
251	C	0.625057	0.165025	0.378571
252	C	0.668929	0.17052	0.378931
253	H	0.686352	0.177747	0.408703
254	C	0.561644	0.161108	0.67017
255	C	0.485173	0.172616	0.337898
256	C	0.505255	0.170527	0.378817
257	H	0.68277	0.171177	0.600336
258	N	0.540965	0.162268	0.631477
259	C	0.543632	0.165026	0.378521
260	N	0.566493	0.167865	0.416952
261	N	0.60499	0.167863	0.416972
262	H	0.495051	0.17775	0.408589
263	C	0.503728	0.16722	0.630717
264	H	0.492183	0.171203	0.600259
265	C	0.833157	0.520545	0.67133
266	C	0.838593	0.502117	0.630754
267	N	0.843462	0.464835	0.63149
268	C	0.84458	0.444105	0.670167
269	C	0.840711	0.462103	0.378545
270	C	0.835188	0.500446	0.378904
271	H	0.82807	0.510742	0.40868
272	C	0.844594	0.402618	0.670133
273	C	0.833154	0.314679	0.337864
274	C	0.835172	0.336834	0.378773
275	H	0.834537	0.513648	0.600319
276	N	0.843438	0.380788	0.631437
277	C	0.840707	0.380707	0.378484
278	N	0.837909	0.400741	0.416925
279	N	0.837912	0.439227	0.416952
280	H	0.828104	0.319435	0.408549
281	C	0.838462	0.338603	0.630687
282	H	0.834611	0.323097	0.600239
283	C	0.48519	0.314688	0.671223
284	C	0.503688	0.338578	0.63068
285	N	0.540959	0.38073	0.63147
286	C	0.561623	0.402553	0.670173
287	C	0.543585	0.380649	0.378528
288	C	0.505238	0.336779	0.378837
289	H	0.494901	0.319359	0.408603
290	C	0.603125	0.444047	0.670214
291	C	0.691033	0.520515	0.338059
292	C	0.668855	0.500399	0.378945
293	H	0.492166	0.322993	0.600245
294	N	0.625002	0.46476	0.631544
295	C	0.624978	0.462065	0.378595
296	N	0.604888	0.439187	0.416999
297	N	0.566405	0.400697	0.416969
298	H	0.686254	0.510698	0.408727
299	C	0.667158	0.502028	0.630821
300	H	0.682762	0.513583	0.600393
301	C	0.955267	0.978615	0.6709
302	C	0.978976	0.954328	0.670913
303	C	0.026975	0.978615	0.670896
304	H	0.920457	0.961215	0.670896
305	H	0.044383	0.961215	0.670893
306	H	0.044363	0.085093	0.67089
307	C	0.458941	0.194375	0.670449
308	C	0.482382	0.242248	0.670348
309	C	0.458943	0.266692	0.670442
310	C	0.410994	0.242555	0.670543
311	C	0.386759	0.194462	0.670597
312	C	0.410996	0.17059	0.670557
313	H	0.393749	0.260095	0.670779
314	H	0.39375	0.135814	0.670795
315	H	0.517256	0.259676	0.670476
316	C	0.811415	0.266701	0.670422
317	C	0.763526	0.242256	0.670365
318	C	0.739087	0.194384	0.670483
319	C	0.763247	0.170598	0.67059
320	C	0.811356	0.194468	0.670597
321	C	0.83522	0.242563	0.670516
322	H	0.745711	0.135822	0.670859
323	H	0.870007	0.260101	0.670732
324	H	0.746081	0.259683	0.67052
325	C	0.739032	0.546761	0.670483
326	C	0.763494	0.523335	0.670419
327	C	0.811382	0.546778	0.670463
328	C	0.835166	0.594711	0.670516
329	C	0.811277	0.618927	0.670553
330	C	0.763169	0.594694	0.670553
331	H	0.869953	0.611955	0.670742
332	H	0.74562	0.611928	0.670802
333	H	0.746067	0.488474	0.670617
334	C	0.338651	0.170414	0.670745
335	C	0.314053	0.158079	0.711546
336	N	0.267887	0.134975	0.71117
337	C	0.243006	0.122545	0.672628
338	C	0.266065	0.13411	0.964072
339	C	0.313903	0.158053	0.963373
340	H	0.330601	0.16642	0.93316
341	C	0.195035	0.098533	0.672655
342	C	0.12407	0.063038	0.9635
343	H	0.330527	0.1663	0.741816
344	N	0.170213	0.086087	0.71123
345	C	0.171915	0.086984	0.964129
346	N	0.196729	0.099426	0.925618
347	N	0.241203	0.121687	0.925591
348	C	0.124051	0.062981	0.711674
349	C	0.83541	0.170419	0.670742
350	C	0.847678	0.158089	0.711543
351	N	0.870734	0.134983	0.711166
352	C	0.883177	0.122546	0.672628
353	C	0.87168	0.134104	0.964069
354	C	0.847787	0.158049	0.963369
355	H	0.839453	0.166412	0.933157
356	C	0.907133	0.098533	0.672655
357	C	0.94259	0.063028	0.9635
358	H	0.839432	0.166316	0.741813
359	N	0.919518	0.086096	0.71123
360	C	0.918695	0.086974	0.964129
361	N	0.906319	0.099409	0.925618
362	N	0.884108	0.121672	0.925587
363	C	0.942571	0.06299	0.711674
364	C	0.835321	0.667023	0.670705
365	C	0.847598	0.691609	0.711509
366	N	0.870673	0.737761	0.71114
367	C	0.883128	0.762639	0.672605
368	C	0.871619	0.739594	0.964042
369	C	0.84771	0.691769	0.963336
370	H	0.839377	0.675082	0.93312
371	C	0.907106	0.810596	0.672638
372	C	0.954919	0.906218	0.004245
373	C	0.942597	0.881547	0.963494
374	H	0.839352	0.675136	0.741776
375	N	0.919497	0.835406	0.711217
376	C	0.918679	0.833715	0.964116
377	N	0.906292	0.808915	0.925601
378	N	0.884062	0.764455	0.925567
379	H	0.950979	0.898292	0.933311
380	C	0.942571	0.881554	0.711668
381	H	0.950771	0.897969	0.741964
382	C	0.667235	0.167292	0.964112
383	N	0.625024	0.16229	0.964845
384	C	0.603157	0.161121	0.003528
385	C	0.625057	0.165025	0.711903
386	C	0.668929	0.17052	0.712263
387	H	0.686352	0.177747	0.742038
388	C	0.561644	0.161108	0.003505
389	C	0.485173	0.172616	0.671233
390	C	0.505255	0.170527	0.712152
391	H	0.68277	0.171177	0.933668
392	N	0.540965	0.162268	0.964808
393	C	0.543632	0.165026	0.711852
394	N	0.566493	0.167865	0.750283
395	N	0.60499	0.167863	0.750307
396	H	0.495051	0.17775	0.741921
397	C	0.503728	0.16722	0.964052
398	H	0.492183	0.171203	0.933594
399	C	0.838593	0.502117	0.964085
400	N	0.843462	0.464835	0.964822
401	C	0.84458	0.444105	0.003498
402	C	0.840711	0.462103	0.711876
403	C	0.835188	0.500446	0.712239
404	H	0.82807	0.510742	0.742015
405	C	0.844594	0.402618	0.003465
406	C	0.833154	0.314679	0.671199
407	C	0.835172	0.336834	0.712105
408	H	0.834537	0.513648	0.933654
409	N	0.843438	0.380788	0.964771
410	C	0.840707	0.380707	0.711815
411	N	0.837909	0.400741	0.750256
412	N	0.837912	0.439227	0.750287
413	H	0.828104	0.319435	0.74188
414	C	0.838462	0.338603	0.964022
415	H	0.834611	0.323097	0.933574
416	C	0.503688	0.338578	0.964015
417	N	0.540959	0.38073	0.964802
418	C	0.561623	0.402553	0.003508
419	C	0.543585	0.380649	0.711863
420	C	0.505238	0.336779	0.712169
421	H	0.494901	0.319359	0.741934
422	C	0.603125	0.444047	0.003545
423	C	0.691033	0.520515	0.671394
424	C	0.668855	0.500399	0.712276
425	H	0.492166	0.322993	0.93358
426	N	0.625002	0.46476	0.964879
427	C	0.624978	0.462065	0.711926
428	N	0.604888	0.439187	0.75033
429	N	0.566405	0.400697	0.750303
430	H	0.686254	0.510698	0.742058
431	C	0.667158	0.502028	0.964153
432	H	0.682762	0.513583	0.933728
