data_C216H36N180O72_2018-02-15_10:38:03
#******************************************
#
# CIF file created by Zeo++
# Zeo++ is an open source package to
# analyze microporous materials
#
#*******************************************

_cell_length_a		29.1426   
_cell_length_b		29.1426   
_cell_length_c		29.768   
_cell_angle_alpha		90   
_cell_angle_beta		90   
_cell_angle_gamma		120   

_symmetry_space_group_name_H-M		'P1'
_symmetry_Int_Tables_number		1
_symmetry_cell_setting		Monoclinic

loop_
_symmetry_equiv_pos_as_xyz
'+x,+y,+z'

loop_
_atom_site_label
_atom_site_type_symbol
_atom_site_fract_x
_atom_site_fract_y
_atom_site_fract_z
1	C	0.024619	0.315178	0.352379
2	C	0.055922	0.290558	0.020011
3	N	0.029408	0.237184	0.021969
4	H	0.041363	0.355437	0.350931
5	C	0.024619	0.315178	0.685714
6	C	0.055922	0.290558	0.353343
7	N	0.029408	0.237184	0.355302
8	H	0.041363	0.355437	0.684263
9	C	0.024619	0.315178	0.019047
10	C	0.055922	0.290558	0.686678
11	N	0.029408	0.237184	0.688637
12	H	0.041363	0.355437	0.017598
13	C	0.025953	0.81415	0.353441
14	C	0.057087	0.789438	0.020357
15	N	0.030821	0.735963	0.020545
16	H	0.042636	0.854443	0.35337
17	C	0.025953	0.81415	0.686776
18	C	0.057087	0.789438	0.353689
19	N	0.030821	0.735963	0.353877
20	H	0.042636	0.854443	0.686702
21	C	0.025953	0.81415	0.020108
22	C	0.057087	0.789438	0.687021
23	N	0.030821	0.735963	0.687209
24	H	0.042636	0.854443	0.020038
25	C	0.111635	0.316898	0.019272
26	C	0.111635	0.316898	0.352604
27	C	0.111635	0.316898	0.685936
28	C	0.112647	0.816009	0.02073
29	C	0.112647	0.816009	0.354062
30	C	0.112647	0.816009	0.687397
31	C	0.192629	0.398202	0.017729
32	N	0.139106	0.370439	0.018279
33	N	0.139688	0.290742	0.01973
34	C	0.193822	0.316666	0.019102
35	N	0.219188	0.370657	0.018141
36	C	0.306553	0.120382	0.023035
37	N	0.360169	0.14964	0.022955
38	C	0.387822	0.203407	0.022026
39	N	0.358759	0.22855	0.021191
40	C	0.304461	0.201808	0.021359
41	N	0.279993	0.147794	0.022185
42	C	0.274943	0.228675	0.020742
43	N	0.30146	0.282736	0.352927
44	C	0.278085	0.313199	0.352315
45	C	0.222181	0.288794	0.019577
46	N	0.195668	0.234904	0.020759
47	C	0.218619	0.203838	0.021359
48	H	0.301618	0.353484	0.351455
49	N	0.185651	0.148336	0.022818
50	O	0.155738	0.132216	0.989128
51	O	0.157362	0.134699	0.05752
52	C	0.279873	0.06433	0.023454
53	N	0.225893	0.037341	0.355409
54	C	0.194598	0.485221	0.350847
55	C	0.21908	0.453828	0.017309
56	N	0.272509	0.48003	0.017119
57	C	0.30466	0.032864	0.024904
58	H	0.154317	0.468603	0.351062
59	N	0.359552	0.053492	0.027132
60	O	0.374709	0.037066	0.994459
61	O	0.37134	0.038488	0.062706
62	C	0.443996	0.230675	0.021647
63	N	0.470873	0.28465	0.353162
64	C	0.475818	0.206184	0.02288
65	N	0.455771	0.151369	0.025216
66	O	0.471734	0.136244	0.992195
67	O	0.47159	0.13993	0.060514
68	C	0.192629	0.398202	0.351062
69	N	0.139106	0.370439	0.351613
70	N	0.139688	0.290742	0.353064
71	C	0.193822	0.316666	0.352433
72	N	0.219188	0.370657	0.351472
73	C	0.306553	0.120382	0.356366
74	N	0.360169	0.14964	0.356289
75	C	0.387822	0.203407	0.355359
76	N	0.358759	0.22855	0.354522
77	C	0.304461	0.201808	0.354694
78	N	0.279993	0.147794	0.355517
79	C	0.274943	0.228675	0.354075
80	N	0.30146	0.282736	0.686262
81	C	0.278085	0.313199	0.68565
82	C	0.222181	0.288794	0.35291
83	N	0.195668	0.234904	0.354092
84	C	0.218619	0.203838	0.35469
85	H	0.301618	0.353484	0.684787
86	N	0.185651	0.148336	0.356151
87	O	0.155738	0.132216	0.322461
88	O	0.157362	0.134699	0.390853
89	C	0.279873	0.06433	0.356786
90	N	0.225893	0.037341	0.688741
91	C	0.194598	0.485221	0.684182
92	C	0.21908	0.453828	0.350642
93	N	0.272509	0.48003	0.350451
94	C	0.30466	0.032864	0.358238
95	H	0.154317	0.468603	0.684397
96	N	0.359552	0.053492	0.360465
97	O	0.374709	0.037066	0.327792
98	O	0.37134	0.038488	0.39604
99	C	0.443996	0.230675	0.354979
100	N	0.470873	0.28465	0.686493
101	C	0.475818	0.206184	0.356212
102	N	0.455771	0.151369	0.35855
103	O	0.471734	0.136244	0.32553
104	O	0.47159	0.13993	0.393846
105	C	0.192629	0.398202	0.684394
106	N	0.139106	0.370439	0.684945
107	N	0.139688	0.290742	0.686396
108	C	0.193822	0.316666	0.685768
109	N	0.219188	0.370657	0.684807
110	C	0.306553	0.120382	0.689701
111	N	0.360169	0.14964	0.689621
112	C	0.387822	0.203407	0.68869
113	N	0.358759	0.22855	0.687857
114	C	0.304461	0.201808	0.688025
115	N	0.279993	0.147794	0.688852
116	C	0.274943	0.228675	0.687407
117	N	0.30146	0.282736	0.019595
118	C	0.278085	0.313199	0.018983
119	C	0.222181	0.288794	0.686241
120	N	0.195668	0.234904	0.687424
121	C	0.218619	0.203838	0.688025
122	H	0.301618	0.353484	0.018122
123	N	0.185651	0.148336	0.689483
124	O	0.155738	0.132216	0.655793
125	O	0.157362	0.134699	0.724185
126	C	0.279873	0.06433	0.690118
127	N	0.225893	0.037341	0.022076
128	C	0.194598	0.485221	0.017515
129	C	0.21908	0.453828	0.683974
130	N	0.272509	0.48003	0.683786
131	C	0.30466	0.032864	0.691569
132	H	0.154317	0.468603	0.01773
133	N	0.359552	0.053492	0.693796
134	O	0.374709	0.037066	0.661124
135	O	0.37134	0.038488	0.729372
136	C	0.443996	0.230675	0.688311
137	N	0.470873	0.28465	0.019828
138	C	0.475818	0.206184	0.689547
139	N	0.455771	0.151369	0.691882
140	O	0.471734	0.136244	0.658863
141	O	0.47159	0.13993	0.727178
142	C	0.193923	0.896977	0.022058
143	N	0.140381	0.869527	0.021303
144	N	0.140107	0.789446	0.02074
145	C	0.194048	0.814931	0.021346
146	N	0.220095	0.869012	0.022091
147	C	0.306879	0.621498	0.01842
148	N	0.360629	0.649012	0.01885
149	C	0.389789	0.702597	0.019583
150	N	0.362494	0.7292	0.019912
151	C	0.308557	0.704689	0.019614
152	N	0.28171	0.65047	0.01885
153	C	0.281805	0.734173	0.020145
154	N	0.227769	0.707471	0.352893
155	C	0.197309	0.730765	0.353296
156	C	0.221843	0.786641	0.021039
157	N	0.275708	0.813334	0.021671
158	C	0.306778	0.790468	0.021312
159	H	0.157015	0.707237	0.352735
160	N	0.362297	0.823466	0.022264
161	O	0.37791	0.853745	0.988792
162	O	0.376443	0.851372	0.057191
163	C	0.279404	0.565428	0.017769
164	N	0.225394	0.538901	0.351139
165	C	0.195494	0.983667	0.355127
166	C	0.22036	0.952631	0.02272
167	N	0.273791	0.979241	0.024388
168	C	0.303785	0.533532	0.017251
169	H	0.155216	0.966836	0.353887
170	N	0.35866	0.553423	0.016955
171	O	0.371771	0.537986	0.982355
172	O	0.372098	0.537031	0.050767
173	C	0.445736	0.729477	0.019934
174	N	0.472354	0.783479	0.353219
175	C	0.47729	0.704812	0.020359
176	N	0.456838	0.649876	0.021062
177	O	0.473211	0.635925	0.987565
178	O	0.471962	0.636899	0.055923
179	C	0.193923	0.896977	0.355389
180	N	0.140381	0.869527	0.354636
181	N	0.140107	0.789446	0.354072
182	C	0.194048	0.814931	0.35468
183	N	0.220095	0.869012	0.355423
184	C	0.306879	0.621498	0.351751
185	N	0.360629	0.649012	0.352184
186	C	0.389789	0.702597	0.352916
187	N	0.362494	0.7292	0.353246
188	C	0.308557	0.704689	0.352947
189	N	0.28171	0.65047	0.352184
190	C	0.281805	0.734173	0.353477
191	N	0.227769	0.707471	0.686225
192	C	0.197309	0.730765	0.686628
193	C	0.221843	0.786641	0.354371
194	N	0.275708	0.813334	0.355003
195	C	0.306778	0.790468	0.354643
196	H	0.157015	0.707237	0.686067
197	N	0.362297	0.823466	0.355597
198	O	0.37791	0.853745	0.322125
199	O	0.376443	0.851372	0.390524
200	C	0.279404	0.565428	0.351102
201	N	0.225394	0.538901	0.684471
202	C	0.195494	0.983667	0.688459
203	C	0.22036	0.952631	0.356051
204	N	0.273791	0.979241	0.35772
205	C	0.303785	0.533532	0.350585
206	H	0.155216	0.966836	0.687219
207	N	0.35866	0.553423	0.350289
208	O	0.371771	0.537986	0.31569
209	O	0.372098	0.537031	0.384101
210	C	0.445736	0.729477	0.353266
211	N	0.472354	0.783479	0.68655
212	C	0.47729	0.704812	0.353692
213	N	0.456838	0.649876	0.354395
214	O	0.473211	0.635925	0.3209
215	O	0.471962	0.636899	0.389258
216	C	0.193923	0.896977	0.688724
217	N	0.140381	0.869527	0.687968
218	N	0.140107	0.789446	0.687404
219	C	0.194048	0.814931	0.688012
220	N	0.220095	0.869012	0.688758
221	C	0.306879	0.621498	0.685086
222	N	0.360629	0.649012	0.685516
223	C	0.389789	0.702597	0.686248
224	N	0.362494	0.7292	0.686577
225	C	0.308557	0.704689	0.686278
226	N	0.28171	0.65047	0.685516
227	C	0.281805	0.734173	0.686812
228	N	0.227769	0.707471	0.019559
229	C	0.197309	0.730765	0.019964
230	C	0.221843	0.786641	0.687706
231	N	0.275708	0.813334	0.688338
232	C	0.306778	0.790468	0.687978
233	H	0.157015	0.707237	0.019403
234	N	0.362297	0.823466	0.688929
235	O	0.37791	0.853745	0.655457
236	O	0.376443	0.851372	0.723856
237	C	0.279404	0.565428	0.684434
238	N	0.225394	0.538901	0.017806
239	C	0.195494	0.983667	0.021793
240	C	0.22036	0.952631	0.689386
241	N	0.273791	0.979241	0.691052
242	C	0.303785	0.533532	0.683917
243	H	0.155216	0.966836	0.020554
244	N	0.35866	0.553423	0.683621
245	O	0.371771	0.537986	0.649024
246	O	0.372098	0.537031	0.717433
247	C	0.445736	0.729477	0.686601
248	N	0.472354	0.783479	0.019886
249	C	0.47729	0.704812	0.687024
250	N	0.456838	0.649876	0.687726
251	O	0.473211	0.635925	0.654234
252	O	0.471962	0.636899	0.722589
253	C	0.692629	0.398202	0.017729
254	N	0.639105	0.370439	0.018279
255	C	0.611635	0.316898	0.019272
256	N	0.639688	0.290742	0.01973
257	C	0.693821	0.316666	0.019102
258	N	0.719186	0.370657	0.018141
259	C	0.806552	0.120382	0.023035
260	N	0.860169	0.14964	0.022955
261	C	0.887821	0.203407	0.022026
262	N	0.858759	0.22855	0.021191
263	C	0.804462	0.201808	0.021359
264	N	0.779994	0.147794	0.022185
265	C	0.774944	0.228675	0.020742
266	N	0.80146	0.282736	0.352927
267	C	0.778085	0.313199	0.352315
268	C	0.72218	0.288794	0.019577
269	N	0.695667	0.234904	0.020759
270	C	0.718618	0.203838	0.021359
271	H	0.801618	0.353484	0.351455
272	N	0.685651	0.148336	0.022818
273	O	0.655736	0.132216	0.989128
274	O	0.657362	0.134699	0.05752
275	C	0.779871	0.06433	0.023454
276	N	0.725893	0.037341	0.355409
277	C	0.694598	0.485221	0.350847
278	C	0.71908	0.453828	0.017309
279	N	0.77251	0.48003	0.017119
280	C	0.80466	0.032864	0.024904
281	H	0.654315	0.468603	0.351062
282	N	0.859551	0.053492	0.027132
283	O	0.874709	0.037066	0.994459
284	O	0.87134	0.038488	0.062706
285	C	0.943997	0.230675	0.021647
286	N	0.970872	0.28465	0.353162
287	C	0.524619	0.315178	0.352379
288	C	0.555922	0.290558	0.020011
289	N	0.529407	0.237184	0.021969
290	C	0.975818	0.206184	0.02288
291	H	0.541361	0.355437	0.350931
292	N	0.955771	0.151369	0.025216
293	O	0.971734	0.136244	0.992195
294	O	0.97159	0.13993	0.060514
295	C	0.692629	0.398202	0.351062
296	N	0.639105	0.370439	0.351613
297	C	0.611635	0.316898	0.352604
298	N	0.639688	0.290742	0.353064
299	C	0.693821	0.316666	0.352433
300	N	0.719186	0.370657	0.351472
301	C	0.806552	0.120382	0.356366
302	N	0.860169	0.14964	0.356289
303	C	0.887821	0.203407	0.355359
304	N	0.858759	0.22855	0.354522
305	C	0.804462	0.201808	0.354694
306	N	0.779994	0.147794	0.355517
307	C	0.774944	0.228675	0.354075
308	N	0.80146	0.282736	0.686262
309	C	0.778085	0.313199	0.68565
310	C	0.72218	0.288794	0.35291
311	N	0.695667	0.234904	0.354092
312	C	0.718618	0.203838	0.35469
313	H	0.801618	0.353484	0.684787
314	N	0.685651	0.148336	0.356151
315	O	0.655736	0.132216	0.322461
316	O	0.657362	0.134699	0.390853
317	C	0.779871	0.06433	0.356786
318	N	0.725893	0.037341	0.688741
319	C	0.694598	0.485221	0.684182
320	C	0.71908	0.453828	0.350642
321	N	0.77251	0.48003	0.350451
322	C	0.80466	0.032864	0.358238
323	H	0.654315	0.468603	0.684397
324	N	0.859551	0.053492	0.360465
325	O	0.874709	0.037066	0.327792
326	O	0.87134	0.038488	0.39604
327	C	0.943997	0.230675	0.354979
328	N	0.970872	0.28465	0.686493
329	C	0.524619	0.315178	0.685714
330	C	0.555922	0.290558	0.353343
331	N	0.529407	0.237184	0.355302
332	C	0.975818	0.206184	0.356212
333	H	0.541361	0.355437	0.684263
334	N	0.955771	0.151369	0.35855
335	O	0.971734	0.136244	0.32553
336	O	0.97159	0.13993	0.393846
337	C	0.692629	0.398202	0.684394
338	N	0.639105	0.370439	0.684945
339	C	0.611635	0.316898	0.685936
340	N	0.639688	0.290742	0.686396
341	C	0.693821	0.316666	0.685768
342	N	0.719186	0.370657	0.684807
343	C	0.806552	0.120382	0.689701
344	N	0.860169	0.14964	0.689621
345	C	0.887821	0.203407	0.68869
346	N	0.858759	0.22855	0.687857
347	C	0.804462	0.201808	0.688025
348	N	0.779994	0.147794	0.688852
349	C	0.774944	0.228675	0.687407
350	N	0.80146	0.282736	0.019595
351	C	0.778085	0.313199	0.018983
352	C	0.72218	0.288794	0.686241
353	N	0.695667	0.234904	0.687424
354	C	0.718618	0.203838	0.688025
355	H	0.801618	0.353484	0.018122
356	N	0.685651	0.148336	0.689483
357	O	0.655736	0.132216	0.655793
358	O	0.657362	0.134699	0.724185
359	C	0.779871	0.06433	0.690118
360	N	0.725893	0.037341	0.022076
361	C	0.694598	0.485221	0.017515
362	C	0.71908	0.453828	0.683974
363	N	0.77251	0.48003	0.683786
364	C	0.80466	0.032864	0.691569
365	H	0.654315	0.468603	0.01773
366	N	0.859551	0.053492	0.693796
367	O	0.874709	0.037066	0.661124
368	O	0.87134	0.038488	0.729372
369	C	0.943997	0.230675	0.688311
370	N	0.970872	0.28465	0.019828
371	C	0.524619	0.315178	0.019047
372	C	0.555922	0.290558	0.686678
373	N	0.529407	0.237184	0.688637
374	C	0.975818	0.206184	0.689547
375	H	0.541361	0.355437	0.017598
376	N	0.955771	0.151369	0.691882
377	O	0.971734	0.136244	0.658863
378	O	0.97159	0.13993	0.727178
379	C	0.693922	0.896977	0.022058
380	N	0.640381	0.869527	0.021303
381	C	0.612647	0.816009	0.02073
382	N	0.640107	0.789446	0.02074
383	C	0.694048	0.814931	0.021346
384	N	0.720095	0.869012	0.022091
385	C	0.806878	0.621498	0.01842
386	N	0.860628	0.649012	0.01885
387	C	0.889789	0.702597	0.019583
388	N	0.862493	0.7292	0.019912
389	C	0.808557	0.704689	0.019614
390	N	0.781711	0.65047	0.01885
391	C	0.781806	0.734173	0.020145
392	N	0.727769	0.707471	0.352893
393	C	0.697308	0.730765	0.353296
394	C	0.721843	0.786641	0.021039
395	N	0.775708	0.813334	0.021671
396	C	0.806776	0.790468	0.021312
397	H	0.657015	0.707237	0.352735
398	N	0.862297	0.823466	0.022264
399	O	0.87791	0.853745	0.988792
400	O	0.876442	0.851372	0.057191
401	C	0.779403	0.565428	0.017769
402	N	0.725395	0.538901	0.351139
403	C	0.695494	0.983667	0.355127
404	C	0.72036	0.952631	0.02272
405	N	0.773791	0.979241	0.024388
406	C	0.803784	0.533532	0.017251
407	H	0.655215	0.966836	0.353887
408	N	0.85866	0.553423	0.016955
409	O	0.87177	0.537986	0.982355
410	O	0.872096	0.537031	0.050767
411	C	0.945737	0.729477	0.019934
412	N	0.972353	0.783479	0.353219
413	C	0.525951	0.81415	0.353441
414	C	0.557087	0.789438	0.020357
415	N	0.530821	0.735963	0.020545
416	C	0.977289	0.704812	0.020359
417	H	0.542637	0.854443	0.35337
418	N	0.956838	0.649876	0.021062
419	O	0.973209	0.635925	0.987565
420	O	0.97196	0.636899	0.055923
421	C	0.693922	0.896977	0.355389
422	N	0.640381	0.869527	0.354636
423	C	0.612647	0.816009	0.354062
424	N	0.640107	0.789446	0.354072
425	C	0.694048	0.814931	0.35468
426	N	0.720095	0.869012	0.355423
427	C	0.806878	0.621498	0.351751
428	N	0.860628	0.649012	0.352184
429	C	0.889789	0.702597	0.352916
430	N	0.862493	0.7292	0.353246
431	C	0.808557	0.704689	0.352947
432	N	0.781711	0.65047	0.352184
433	C	0.781806	0.734173	0.353477
434	N	0.727769	0.707471	0.686225
435	C	0.697308	0.730765	0.686628
436	C	0.721843	0.786641	0.354371
437	N	0.775708	0.813334	0.355003
438	C	0.806776	0.790468	0.354643
439	H	0.657015	0.707237	0.686067
440	N	0.862297	0.823466	0.355597
441	O	0.87791	0.853745	0.322125
442	O	0.876442	0.851372	0.390524
443	C	0.779403	0.565428	0.351102
444	N	0.725395	0.538901	0.684471
445	C	0.695494	0.983667	0.688459
446	C	0.72036	0.952631	0.356051
447	N	0.773791	0.979241	0.35772
448	C	0.803784	0.533532	0.350585
449	H	0.655215	0.966836	0.687219
450	N	0.85866	0.553423	0.350289
451	O	0.87177	0.537986	0.31569
452	O	0.872096	0.537031	0.384101
453	C	0.945737	0.729477	0.353266
454	N	0.972353	0.783479	0.68655
455	C	0.525951	0.81415	0.686776
456	C	0.557087	0.789438	0.353689
457	N	0.530821	0.735963	0.353877
458	C	0.977289	0.704812	0.353692
459	H	0.542637	0.854443	0.686702
460	N	0.956838	0.649876	0.354395
461	O	0.973209	0.635925	0.3209
462	O	0.97196	0.636899	0.389258
463	C	0.693922	0.896977	0.688724
464	N	0.640381	0.869527	0.687968
465	C	0.612647	0.816009	0.687397
466	N	0.640107	0.789446	0.687404
467	C	0.694048	0.814931	0.688012
468	N	0.720095	0.869012	0.688758
469	C	0.806878	0.621498	0.685086
470	N	0.860628	0.649012	0.685516
471	C	0.889789	0.702597	0.686248
472	N	0.862493	0.7292	0.686577
473	C	0.808557	0.704689	0.686278
474	N	0.781711	0.65047	0.685516
475	C	0.781806	0.734173	0.686812
476	N	0.727769	0.707471	0.019559
477	C	0.697308	0.730765	0.019964
478	C	0.721843	0.786641	0.687706
479	N	0.775708	0.813334	0.688338
480	C	0.806776	0.790468	0.687978
481	H	0.657015	0.707237	0.019403
482	N	0.862297	0.823466	0.688929
483	O	0.87791	0.853745	0.655457
484	O	0.876442	0.851372	0.723856
485	C	0.779403	0.565428	0.684434
486	N	0.725395	0.538901	0.017806
487	C	0.695494	0.983667	0.021793
488	C	0.72036	0.952631	0.689386
489	N	0.773791	0.979241	0.691052
490	C	0.803784	0.533532	0.683917
491	H	0.655215	0.966836	0.020554
492	N	0.85866	0.553423	0.683621
493	O	0.87177	0.537986	0.649024
494	O	0.872096	0.537031	0.717433
495	C	0.945737	0.729477	0.686601
496	N	0.972353	0.783479	0.019886
497	C	0.525951	0.81415	0.020108
498	C	0.557087	0.789438	0.687021
499	N	0.530821	0.735963	0.687209
500	C	0.977289	0.704812	0.687024
501	H	0.542637	0.854443	0.020038
502	N	0.956838	0.649876	0.687726
503	O	0.973209	0.635925	0.654234
504	O	0.97196	0.636899	0.722589
