data_C180H72N108O72_2018-02-15_10:45:29
#******************************************
#
# CIF file created by Zeo++
# Zeo++ is an open source package to
# analyze microporous materials
#
#*******************************************

_cell_length_a		34.5445   
_cell_length_b		34.5446   
_cell_length_c		29.3246   
_cell_angle_alpha		90   
_cell_angle_beta		90   
_cell_angle_gamma		120   

_symmetry_space_group_name_H-M		'P1'
_symmetry_Int_Tables_number		1
_symmetry_cell_setting		Monoclinic

loop_
_symmetry_equiv_pos_as_xyz
'+x,+y,+z'

loop_
_atom_site_label
_atom_site_type_symbol
_atom_site_fract_x
_atom_site_fract_y
_atom_site_fract_z
1	C	0.395518	0.194275	0.012579
2	N	0.419922	0.173069	0.014559
3	C	0.46541	0.196382	0.013165
4	N	0.350993	0.168899	0.01347
5	N	0.491475	0.178145	0.016263
6	N	0.852556	0.18784	0.013501
7	C	0.17955	0.084818	0.015974
8	C	0.208678	0.089646	0.052134
9	C	0.255335	0.120373	0.050061
10	H	0.195807	0.070858	0.081064
11	N	0.283271	0.125637	0.087739
12	O	0.282633	0.089821	0.097078
13	O	0.272074	0.138826	0.122614
14	C	0.134205	0.052705	0.018373
15	H	0.126123	0.02234	0.029455
16	C	0.936674	0.100521	0.015997
17	C	0.931924	0.124908	0.052118
18	C	0.901195	0.140834	0.050056
19	H	0.950802	0.130925	0.080998
20	N	0.896034	0.163624	0.087688
21	O	0.931877	0.198834	0.096877
22	O	0.882948	0.139351	0.122647
23	C	0.968761	0.087253	0.018396
24	H	0.999132	0.109523	0.02948
25	C	0.642014	0.18038	0.017195
26	C	0.612658	0.17562	0.053643
27	C	0.5713	0.173473	0.044389
28	H	0.552655	0.17392	0.071312
29	N	0.626526	0.176272	0.09935
30	O	0.599825	0.141206	0.120308
31	C	0.687205	0.19685	0.026743
32	C	0.827184	0.206993	0.012606
33	O	0.630268	0.209364	0.121059
34	H	0.701494	0.224102	0.046327
35	N	0.848389	0.2526	0.014584
36	C	0.825075	0.274776	0.013204
37	N	0.779905	0.250027	0.011844
38	N	0.843323	0.319082	0.016274
39	C	0.814392	0.625925	0.012607
40	N	0.768779	0.601524	0.014575
41	C	0.746606	0.556037	0.013188
42	N	0.833547	0.670452	0.013491
43	N	0.702303	0.529958	0.016252
44	C	0.92093	0.841896	0.015989
45	C	0.896623	0.812775	0.052149
46	C	0.880675	0.766115	0.050075
47	H	0.890678	0.825647	0.081061
48	N	0.857971	0.73818	0.087744
49	O	0.822796	0.738836	0.097056
50	O	0.882336	0.749365	0.122635
51	C	0.934193	0.887249	0.018384
52	H	0.911924	0.895351	0.029465
53	C	0.840978	0.467313	0.017215
54	C	0.84576	0.442752	0.053658
55	C	0.847883	0.403536	0.044384
56	H	0.847543	0.38448	0.071292
57	N	0.845093	0.455969	0.099356
58	O	0.880159	0.464335	0.12032
59	O	0.812002	0.426614	0.121061
60	C	0.824455	0.496013	0.026633
61	H	0.797233	0.483104	0.046264
62	C	0.554099	0.379456	0.017112
63	C	0.578696	0.408751	0.053588
64	C	0.617925	0.450079	0.044304
65	H	0.637009	0.468794	0.071201
66	N	0.565504	0.394879	0.099298
67	O	0.55719	0.421603	0.120281
68	O	0.594859	0.391111	0.12097
69	C	0.525381	0.334247	0.026655
70	H	0.538354	0.319943	0.046201
71	C	0.058301	0.034701	0.009652
72	N	0.032316	0.054082	0.009458
73	C	0.986746	0.029345	0.009659
74	N	0.960295	0.047325	0.008752
75	N	0.102733	0.06116	0.008742
76	N	0.781418	0.183478	0.010484
77	N	0.712532	0.183881	0.007593
78	C	0.274251	0.146598	0.343489
79	C	0.245318	0.141738	0.306604
80	C	0.19868	0.111133	0.309963
81	H	0.178582	0.107607	0.282763
82	N	0.263608	0.167009	0.266234
83	O	0.257061	0.142145	0.232385
84	O	0.247432	0.191735	0.257881
85	C	0.319821	0.178678	0.341307
86	C	0.874853	0.133391	0.343551
87	C	0.879597	0.109188	0.306719
88	C	0.910217	0.093171	0.310065
89	H	0.913654	0.0765	0.282905
90	N	0.854197	0.102054	0.266418
91	O	0.878947	0.120244	0.232467
92	O	0.829443	0.061121	0.258236
93	C	0.84277	0.146881	0.341382
94	H	0.811354	0.123737	0.334534
95	C	0.558411	0.176758	0.332835
96	C	0.586636	0.178856	0.296851
97	C	0.628225	0.181228	0.304984
98	H	0.579025	0.182982	0.264073
99	N	0.65775	0.188517	0.268145
100	O	0.640613	0.157318	0.239511
101	C	0.5261	0.188877	0.324382
102	C	0.058301	0.034701	0.342985
103	N	0.032316	0.054082	0.34279
104	C	0.986746	0.029345	0.342991
105	N	0.960295	0.047325	0.342084
106	N	0.102733	0.06116	0.342074
107	C	0.395518	0.194275	0.345914
108	N	0.419922	0.173069	0.347892
109	C	0.46541	0.196382	0.3465
110	N	0.350993	0.168899	0.346804
111	N	0.491475	0.178145	0.349597
112	N	0.781418	0.183478	0.343817
113	N	0.852556	0.18784	0.346835
114	N	0.712532	0.183881	0.340924
115	C	0.17955	0.084818	0.349307
116	C	0.208678	0.089646	0.385468
117	C	0.255335	0.120373	0.383394
118	C	0.274251	0.146598	0.676823
119	C	0.245318	0.141738	0.639936
120	H	0.195807	0.070858	0.414399
121	C	0.19868	0.111133	0.643298
122	H	0.178582	0.107607	0.616096
123	N	0.283271	0.125637	0.421072
124	N	0.263608	0.167009	0.599567
125	O	0.282633	0.089821	0.430413
126	O	0.257061	0.142145	0.565719
127	O	0.272074	0.138826	0.455948
128	O	0.247432	0.191735	0.591216
129	C	0.134205	0.052705	0.351708
130	H	0.126123	0.02234	0.36279
131	C	0.319821	0.178678	0.674641
132	C	0.936674	0.100521	0.349331
133	C	0.931924	0.124908	0.38545
134	C	0.901195	0.140834	0.383391
135	C	0.874853	0.133391	0.676885
136	C	0.879597	0.109188	0.640052
137	H	0.950802	0.130925	0.414331
138	C	0.910217	0.093171	0.643401
139	H	0.913654	0.0765	0.616239
140	N	0.896034	0.163624	0.421021
141	N	0.854197	0.102054	0.599751
142	O	0.931877	0.198834	0.430211
143	O	0.878947	0.120244	0.5658
144	O	0.882948	0.139351	0.455982
145	O	0.829443	0.061121	0.591571
146	C	0.968761	0.087253	0.351731
147	H	0.999132	0.109523	0.362814
148	C	0.84277	0.146881	0.674716
149	H	0.811354	0.123737	0.667868
150	C	0.558411	0.176758	0.66617
151	C	0.586636	0.178856	0.630187
152	C	0.628225	0.181228	0.63832
153	C	0.642014	0.18038	0.350528
154	C	0.612658	0.17562	0.386978
155	H	0.579025	0.182982	0.597405
156	C	0.5713	0.173473	0.377723
157	H	0.552655	0.17392	0.404646
158	N	0.65775	0.188517	0.60148
159	N	0.626526	0.176272	0.432684
160	O	0.599825	0.141206	0.453642
161	O	0.640613	0.157318	0.572846
162	C	0.5261	0.188877	0.657716
163	C	0.687205	0.19685	0.360076
164	C	0.058301	0.034701	0.676318
165	N	0.032316	0.054082	0.676124
166	C	0.986746	0.029345	0.676325
167	N	0.960295	0.047325	0.675418
168	N	0.102733	0.06116	0.675408
169	C	0.395518	0.194275	0.679248
170	N	0.419922	0.173069	0.681226
171	C	0.46541	0.196382	0.679834
172	N	0.350993	0.168899	0.680138
173	N	0.491475	0.178145	0.682931
174	N	0.781418	0.183478	0.67715
175	N	0.852556	0.18784	0.680168
176	N	0.712532	0.183881	0.674259
177	C	0.17955	0.084818	0.682641
178	C	0.208678	0.089646	0.718801
179	C	0.255335	0.120373	0.716728
180	C	0.274251	0.146598	0.010157
181	C	0.245318	0.141738	0.97327
182	H	0.195807	0.070858	0.747733
183	C	0.19868	0.111133	0.976632
184	H	0.178582	0.107607	0.94943
185	N	0.283271	0.125637	0.754406
186	N	0.263608	0.167009	0.932901
187	O	0.282633	0.089821	0.763747
188	O	0.257061	0.142145	0.899053
189	O	0.272074	0.138826	0.789281
190	O	0.247432	0.191735	0.92455
191	C	0.134205	0.052705	0.685041
192	H	0.126123	0.02234	0.696124
193	C	0.319821	0.178678	0.007975
194	C	0.936674	0.100521	0.682665
195	C	0.931924	0.124908	0.718784
196	C	0.901195	0.140834	0.716725
197	C	0.874853	0.133391	0.010218
198	C	0.879597	0.109188	0.973386
199	H	0.950802	0.130925	0.747665
200	C	0.910217	0.093171	0.976735
201	H	0.913654	0.0765	0.949573
202	N	0.896034	0.163624	0.754355
203	N	0.854197	0.102054	0.933085
204	O	0.931877	0.198834	0.763545
205	O	0.878947	0.120244	0.899134
206	O	0.882948	0.139351	0.789316
207	O	0.829443	0.061121	0.924905
208	C	0.968761	0.087253	0.685065
209	H	0.999132	0.109523	0.696148
210	C	0.84277	0.146881	0.00805
211	H	0.811354	0.123737	0.001202
212	C	0.558411	0.176758	0.999504
213	C	0.586636	0.178856	0.963521
214	C	0.628225	0.181228	0.971654
215	C	0.642014	0.18038	0.683862
216	C	0.612658	0.17562	0.720312
217	H	0.579025	0.182982	0.930739
218	C	0.5713	0.173473	0.711057
219	H	0.552655	0.17392	0.73798
220	N	0.65775	0.188517	0.934814
221	N	0.626526	0.176272	0.766018
222	O	0.599825	0.141206	0.786976
223	O	0.640613	0.157318	0.90618
224	C	0.5261	0.188877	0.99105
225	C	0.687205	0.19685	0.69341
226	C	0.757108	0.204711	0.011013
227	H	0.328088	0.210088	0.334437
228	O	0.669254	0.224865	0.248101
229	H	0.533477	0.21176	0.30005
230	C	0.827184	0.206993	0.345941
231	C	0.757108	0.204711	0.344345
232	H	0.328088	0.210088	0.667773
233	O	0.669254	0.224865	0.581436
234	O	0.630268	0.209364	0.454392
235	H	0.533477	0.21176	0.633385
236	H	0.701494	0.224102	0.37966
237	C	0.827184	0.206993	0.679275
238	C	0.757108	0.204711	0.677679
239	H	0.328088	0.210088	0.001107
240	O	0.669254	0.224865	0.91477
241	O	0.630268	0.209364	0.787726
242	H	0.533477	0.21176	0.966719
243	H	0.701494	0.224102	0.712994
244	C	0.992103	0.963143	0.009632
245	N	0.037468	0.989129	0.009441
246	N	0.967365	0.983978	0.009451
247	N	0.974121	0.918709	0.008735
248	N	0.485829	0.24155	0.011787
249	C	0.463314	0.264351	0.010938
250	N	0.41777	0.24004	0.010437
251	N	0.487061	0.308933	0.007535
252	N	0.771352	0.535614	0.011834
253	C	0.816669	0.558126	0.011016
254	N	0.837904	0.60367	0.010488
255	N	0.837485	0.534363	0.007576
256	C	0.887995	0.747192	0.343516
257	C	0.912119	0.776126	0.30665
258	C	0.928168	0.822769	0.310007
259	H	0.944762	0.842865	0.282811
260	N	0.919134	0.757838	0.266298
261	O	0.900861	0.764403	0.23242
262	O	0.960043	0.773997	0.257997
263	C	0.8745	0.701619	0.341337
264	H	0.897643	0.693349	0.334491
265	C	0.844731	0.387384	0.332829
266	C	0.842561	0.413514	0.296874
267	C	0.840136	0.452706	0.304993
268	H	0.838467	0.401795	0.26409
269	N	0.832829	0.474908	0.26813
270	O	0.796493	0.450035	0.248082
271	O	0.864036	0.48899	0.239505
272	C	0.832608	0.342961	0.324356
273	H	0.809701	0.327456	0.300049
274	C	0.634027	0.463022	0.332726
275	C	0.607872	0.434796	0.296757
276	C	0.568637	0.393224	0.304885
277	H	0.619542	0.442504	0.263964
278	N	0.546333	0.363732	0.268043
279	O	0.57113	0.352223	0.247912
280	O	0.532254	0.380913	0.23948
281	C	0.678438	0.495412	0.324269
282	H	0.693952	0.488078	0.299914
283	C	0.992103	0.963143	0.342964
284	N	0.037468	0.989129	0.342773
285	N	0.967365	0.983978	0.342783
286	N	0.974121	0.918709	0.342067
287	N	0.485829	0.24155	0.345123
288	C	0.463314	0.264351	0.34427
289	N	0.41777	0.24004	0.343769
290	N	0.487061	0.308933	0.340868
291	N	0.848389	0.2526	0.347919
292	C	0.825075	0.274776	0.346538
293	N	0.779905	0.250027	0.345177
294	N	0.843323	0.319082	0.349607
295	C	0.814392	0.625925	0.345941
296	N	0.768779	0.601524	0.347909
297	C	0.746606	0.556037	0.346521
298	N	0.771352	0.535614	0.345167
299	C	0.816669	0.558126	0.344349
300	N	0.837904	0.60367	0.34382
301	N	0.833547	0.670452	0.346824
302	N	0.837485	0.534363	0.340909
303	N	0.702303	0.529958	0.349586
304	C	0.92093	0.841896	0.349324
305	C	0.896623	0.812775	0.385485
306	C	0.880675	0.766115	0.383408
307	C	0.887995	0.747192	0.67685
308	C	0.912119	0.776126	0.639984
309	H	0.890678	0.825647	0.414395
310	C	0.928168	0.822769	0.643343
311	H	0.944762	0.842865	0.616144
312	N	0.857971	0.73818	0.421079
313	N	0.919134	0.757838	0.599632
314	O	0.822796	0.738836	0.430389
315	O	0.900861	0.764403	0.565753
316	O	0.882336	0.749365	0.455968
317	O	0.960043	0.773997	0.591332
318	C	0.934193	0.887249	0.351718
319	H	0.911924	0.895351	0.362801
320	C	0.8745	0.701619	0.674671
321	H	0.897643	0.693349	0.667824
322	C	0.844731	0.387384	0.666163
323	C	0.842561	0.413514	0.630207
324	C	0.840136	0.452706	0.638327
325	C	0.840978	0.467313	0.350548
326	C	0.84576	0.442752	0.386992
327	H	0.838467	0.401795	0.597426
328	C	0.847883	0.403536	0.377716
329	H	0.847543	0.38448	0.404625
330	N	0.832829	0.474908	0.601463
331	N	0.845093	0.455969	0.432691
332	O	0.796493	0.450035	0.581415
333	O	0.880159	0.464335	0.453653
334	O	0.864036	0.48899	0.572839
335	O	0.812002	0.426614	0.454396
336	C	0.832608	0.342961	0.657689
337	H	0.809701	0.327456	0.633382
338	C	0.824455	0.496013	0.359967
339	H	0.797233	0.483104	0.379599
340	C	0.634027	0.463022	0.666061
341	C	0.607872	0.434796	0.630091
342	C	0.568637	0.393224	0.638217
343	C	0.554099	0.379456	0.350446
344	C	0.578696	0.408751	0.386924
345	H	0.619542	0.442504	0.597296
346	C	0.617925	0.450079	0.377638
347	H	0.637009	0.468794	0.404533
348	N	0.546333	0.363732	0.601378
349	N	0.565504	0.394879	0.432633
350	O	0.57113	0.352223	0.581245
351	O	0.55719	0.421603	0.453615
352	O	0.532254	0.380913	0.572815
353	O	0.594859	0.391111	0.454304
354	C	0.678438	0.495412	0.657604
355	H	0.693952	0.488078	0.633249
356	C	0.525381	0.334247	0.359987
357	H	0.538354	0.319943	0.379534
358	C	0.992103	0.963143	0.676298
359	N	0.037468	0.989129	0.676107
360	N	0.967365	0.983978	0.676117
361	N	0.974121	0.918709	0.675401
362	N	0.485829	0.24155	0.678457
363	C	0.463314	0.264351	0.677604
364	N	0.41777	0.24004	0.677103
365	N	0.487061	0.308933	0.674201
366	N	0.848389	0.2526	0.681253
367	C	0.825075	0.274776	0.679872
368	N	0.779905	0.250027	0.678511
369	N	0.843323	0.319082	0.682941
370	C	0.814392	0.625925	0.679275
371	N	0.768779	0.601524	0.681243
372	C	0.746606	0.556037	0.679855
373	N	0.771352	0.535614	0.678501
374	C	0.816669	0.558126	0.677682
375	N	0.837904	0.60367	0.677154
376	N	0.833547	0.670452	0.680158
377	N	0.837485	0.534363	0.674242
378	N	0.702303	0.529958	0.68292
379	C	0.92093	0.841896	0.682658
380	C	0.896623	0.812775	0.718819
381	C	0.880675	0.766115	0.716742
382	C	0.887995	0.747192	0.010184
383	C	0.912119	0.776126	0.973318
384	H	0.890678	0.825647	0.747729
385	C	0.928168	0.822769	0.976677
386	H	0.944762	0.842865	0.949478
387	N	0.857971	0.73818	0.754413
388	N	0.919134	0.757838	0.932966
389	O	0.822796	0.738836	0.763723
390	O	0.900861	0.764403	0.899087
391	O	0.882336	0.749365	0.789302
392	O	0.960043	0.773997	0.924666
393	C	0.934193	0.887249	0.685052
394	H	0.911924	0.895351	0.696135
395	C	0.8745	0.701619	0.008005
396	H	0.897643	0.693349	0.001158
397	C	0.844731	0.387384	0.999497
398	C	0.842561	0.413514	0.963541
399	C	0.840136	0.452706	0.97166
400	C	0.840978	0.467313	0.683882
401	C	0.84576	0.442752	0.720326
402	H	0.838467	0.401795	0.93076
403	C	0.847883	0.403536	0.71105
404	H	0.847543	0.38448	0.737959
405	N	0.832829	0.474908	0.934797
406	N	0.845093	0.455969	0.766025
407	O	0.796493	0.450035	0.914749
408	O	0.880159	0.464335	0.786986
409	O	0.864036	0.48899	0.906173
410	O	0.812002	0.426614	0.78773
411	C	0.832608	0.342961	0.991023
412	H	0.809701	0.327456	0.966716
413	C	0.824455	0.496013	0.693301
414	H	0.797233	0.483104	0.712933
415	C	0.634027	0.463022	0.999395
416	C	0.607872	0.434796	0.963425
417	C	0.568637	0.393224	0.971551
418	C	0.554099	0.379456	0.68378
419	C	0.578696	0.408751	0.720258
420	H	0.619542	0.442504	0.93063
421	C	0.617925	0.450079	0.710972
422	H	0.637009	0.468794	0.737867
423	N	0.546333	0.363732	0.934712
424	N	0.565504	0.394879	0.765967
425	O	0.57113	0.352223	0.914579
426	O	0.55719	0.421603	0.786949
427	O	0.532254	0.380913	0.906149
428	O	0.594859	0.391111	0.787638
429	C	0.678438	0.495412	0.990938
430	H	0.693952	0.488078	0.966583
431	C	0.525381	0.334247	0.693321
432	H	0.538354	0.319943	0.712868
