data_C288H144N36O36_2018-02-15_10:39:33
#******************************************
#
# CIF file created by Zeo++
# Zeo++ is an open source package to
# analyze microporous materials
#
#*******************************************

_cell_length_a		34.149   
_cell_length_b		34.1596   
_cell_length_c		29.8328   
_cell_angle_alpha		90   
_cell_angle_beta		90   
_cell_angle_gamma		119.993   

_symmetry_space_group_name_H-M		'P1'
_symmetry_Int_Tables_number		1
_symmetry_cell_setting		Monoclinic

loop_
_symmetry_equiv_pos_as_xyz
'+x,+y,+z'

loop_
_atom_site_label
_atom_site_type_symbol
_atom_site_fract_x
_atom_site_fract_y
_atom_site_fract_z
1	C	0.118862	0.033302	0.024021
2	N	0.164724	0.057146	0.022808
3	H	0.103596	0.007839	0.047025
4	C	0.911066	0.033977	0.025161
5	N	0.889336	0.058112	0.023976
6	H	0.900784	0.008548	0.048215
7	C	0.453057	0.188177	0.006052
8	C	0.476378	0.235804	0.006028
9	C	0.453018	0.260007	0.003603
10	C	0.405368	0.164464	0.003731
11	H	0.388598	0.129856	0.003095
12	H	0.511069	0.253217	0.007766
13	C	0.756055	0.236536	0.003178
14	C	0.732068	0.188934	0.004665
15	C	0.756344	0.165487	0.003606
16	H	0.738698	0.130871	0.00394
17	H	0.73855	0.253753	0.004154
18	C	0.30559	0.126308	0.026627
19	N	0.259782	0.104504	0.024157
20	H	0.320112	0.115758	0.050124
21	C	0.818223	0.127967	0.027371
22	N	0.84209	0.10601	0.025137
23	H	0.793093	0.117545	0.050788
24	C	0.816821	0.686506	0.026982
25	N	0.840897	0.73234	0.025068
26	C	0.910802	0.873431	0.026074
27	H	0.791645	0.671694	0.05034
28	N	0.888768	0.82757	0.024599
29	H	0.900686	0.888631	0.049241
30	C	0.479185	0.166552	0.008219
31	C	0.555072	0.154745	0.010421
32	C	0.536149	0.158476	0.051541
33	C	0.498021	0.164412	0.049703
34	C	0.596485	0.15485	0.010248
35	C	0.684332	0.167072	0.007359
36	C	0.663589	0.164827	0.04899
37	C	0.619439	0.158648	0.051189
38	C	0.839519	0.37703	0.041181
39	C	0.833498	0.332904	0.040327
40	C	0.832475	0.497797	0.039226
41	C	0.83899	0.460001	0.040625
42	C	0.682714	0.513551	0.002773
43	C	0.59518	0.437533	0.005081
44	C	0.61668	0.458375	0.046119
45	C	0.660692	0.496607	0.044241
46	C	0.55406	0.395965	0.005357
47	C	0.478956	0.307806	0.004171
48	C	0.496178	0.3304	0.045357
49	C	0.5339	0.374735	0.046681
50	C	0.044517	0.020244	0.996508
51	C	0.019847	0.043438	0.996273
52	C	0.971968	0.020363	0.997393
53	C	0.092967	0.044449	0.328579
54	C	0.947957	0.044805	0.329613
55	C	0.044517	0.020244	0.329841
56	C	0.019847	0.043438	0.329608
57	C	0.971968	0.020363	0.330727
58	C	0.118862	0.033302	0.357355
59	C	0.092967	0.044449	0.661913
60	N	0.164724	0.057146	0.356142
61	H	0.103596	0.007839	0.380357
62	C	0.911066	0.033977	0.358495
63	C	0.947957	0.044805	0.662945
64	N	0.889336	0.058112	0.357308
65	H	0.900784	0.008548	0.381547
66	C	0.044517	0.020244	0.663173
67	C	0.019847	0.043438	0.662942
68	C	0.971968	0.020363	0.664061
69	C	0.118862	0.033302	0.690687
70	C	0.092967	0.044449	0.995247
71	N	0.164724	0.057146	0.689473
72	H	0.103596	0.007839	0.713691
73	C	0.911066	0.033977	0.691826
74	C	0.947957	0.044805	0.99628
75	N	0.889336	0.058112	0.690643
76	H	0.900784	0.008548	0.714881
77	C	0.948686	0.972511	0.998687
78	C	0.971875	0.947826	0.998291
79	C	0.019773	0.972426	0.997487
80	H	0.914058	0.955228	0.997812
81	H	0.037067	0.955083	0.997172
82	H	0.037234	0.078064	0.996612
83	C	0.405363	0.235853	0.00113
84	C	0.380758	0.187816	0.001184
85	H	0.388515	0.253617	0.000115
86	C	0.803598	0.260981	0.000487
87	C	0.804305	0.189059	0.000845
88	C	0.82741	0.23708	0.999471
89	H	0.862011	0.255046	0.998268
90	C	0.730517	0.539513	0.001452
91	C	0.754582	0.515948	0.000232
92	C	0.802184	0.539088	0.998837
93	C	0.825972	0.586794	0.99877
94	C	0.802783	0.611637	0.999843
95	C	0.754782	0.587247	0.001529
96	H	0.860593	0.603471	0.998298
97	H	0.73714	0.604232	0.001626
98	H	0.737096	0.481224	0.00055
99	C	0.33239	0.163666	0.331865
100	C	0.236622	0.116038	0.328318
101	C	0.261288	0.152888	0.298615
102	C	0.3091	0.176288	0.301067
103	H	0.327402	0.202629	0.279592
104	C	0.188795	0.092231	0.327654
105	C	0.117209	0.080793	0.298473
106	C	0.165085	0.105021	0.297308
107	C	0.189798	0.141247	0.267201
108	C	0.237564	0.16501	0.267844
109	H	0.099574	0.089267	0.276548
110	O	0.168216	0.154851	0.238091
111	H	0.163534	0.137335	0.210442
112	O	0.260095	0.200568	0.239345
113	H	0.265576	0.188077	0.21188
114	C	0.828761	0.165092	0.33226
115	C	0.876732	0.117246	0.32931
116	C	0.88902	0.15396	0.299392
117	C	0.86468	0.177444	0.301532
118	H	0.872676	0.203536	0.279739
119	C	0.900512	0.093192	0.328754
120	C	0.960196	0.08112	0.299435
121	C	0.936876	0.105654	0.298316
122	C	0.948593	0.141841	0.268107
123	C	0.924816	0.165818	0.268628
124	H	0.986149	0.089335	0.277379
125	O	0.983733	0.155175	0.238982
126	H	0.97081	0.137601	0.211381
127	O	0.937983	0.201291	0.239985
128	H	0.92009	0.188733	0.212487
129	C	0.827273	0.660026	0.331629
130	C	0.875589	0.755811	0.329298
131	C	0.887649	0.731441	0.299049
132	C	0.86315	0.683636	0.300888
133	H	0.871045	0.665577	0.278931
134	C	0.899646	0.803639	0.329079
135	C	0.947701	0.899423	0.330523
136	C	0.959627	0.875347	0.300038
137	C	0.936003	0.827529	0.298623
138	C	0.947413	0.803112	0.268034
139	C	0.923383	0.755378	0.268235
140	H	0.985529	0.893076	0.277924
141	O	0.982465	0.82492	0.238817
142	H	0.969521	0.829926	0.211419
143	O	0.936248	0.733104	0.239212
144	H	0.918227	0.72801	0.211849
145	C	0.498668	0.161132	0.302035
146	N	0.535562	0.156118	0.304477
147	H	0.486146	0.171114	0.078554
148	C	0.659152	0.161597	0.301349
149	H	0.488118	0.165174	0.271154
150	N	0.617178	0.156375	0.304134
151	C	0.599208	0.159757	0.092259
152	C	0.557796	0.15967	0.092436
153	H	0.682345	0.171549	0.077717
154	H	0.673526	0.165735	0.270338
155	O	0.620789	0.164623	0.132023
156	H	0.611601	0.133839	0.14228
157	O	0.541275	0.164445	0.13236
158	H	0.519903	0.133629	0.14271
159	C	0.825103	0.308766	0.999679
160	C	0.824497	0.330604	0.293074
161	N	0.829694	0.372595	0.29468
162	C	0.836923	0.396452	0.999937
163	H	0.831212	0.316572	0.069863
164	C	0.836644	0.437658	0.999659
165	C	0.823346	0.490093	0.292031
166	C	0.823791	0.512892	0.998304
167	H	0.815828	0.313701	0.263143
168	N	0.829115	0.45367	0.294138
169	C	0.844188	0.441894	0.081441
170	C	0.844445	0.40066	0.081717
171	H	0.830113	0.512094	0.068561
172	H	0.814668	0.49801	0.26193
173	O	0.845373	0.461721	0.121418
174	H	0.877349	0.48403	0.126903
175	O	0.845862	0.382553	0.121948
176	H	0.877919	0.392626	0.127533
177	C	0.65892	0.492226	0.296556
178	N	0.617042	0.455356	0.299095
179	H	0.678529	0.509698	0.073298
180	C	0.499559	0.331347	0.297646
181	H	0.674259	0.501474	0.265854
182	N	0.536062	0.373525	0.299653
183	C	0.554033	0.396837	0.087492
184	C	0.595191	0.438399	0.087214
185	H	0.483449	0.312869	0.074639
186	H	0.490265	0.315596	0.267149
187	O	0.536302	0.376962	0.127701
188	H	0.51422	0.386275	0.135787
189	O	0.615317	0.456779	0.127163
190	H	0.605383	0.478381	0.135241
191	C	0.948686	0.972511	0.33202
192	C	0.971875	0.947826	0.331623
193	C	0.019773	0.972426	0.330821
194	H	0.914058	0.955228	0.331146
195	H	0.037067	0.955083	0.330505
196	H	0.037234	0.078064	0.329947
197	C	0.453057	0.188177	0.339385
198	C	0.476378	0.235804	0.339362
199	C	0.453018	0.260007	0.336935
200	C	0.405363	0.235853	0.334463
201	C	0.380758	0.187816	0.334518
202	C	0.405368	0.164464	0.337065
203	H	0.388515	0.253617	0.333448
204	H	0.388598	0.129856	0.336429
205	H	0.511069	0.253217	0.341098
206	C	0.803598	0.260981	0.33382
207	C	0.756055	0.236536	0.336509
208	C	0.732068	0.188934	0.337997
209	C	0.756344	0.165487	0.336938
210	C	0.804305	0.189059	0.334178
211	C	0.82741	0.23708	0.332805
212	H	0.738698	0.130871	0.337273
213	H	0.862011	0.255046	0.331601
214	H	0.73855	0.253753	0.337488
215	C	0.730517	0.539513	0.334785
216	C	0.754582	0.515948	0.333566
217	C	0.802184	0.539088	0.33217
218	C	0.825972	0.586794	0.332103
219	C	0.802783	0.611637	0.333176
220	C	0.754782	0.587247	0.334864
221	H	0.860593	0.603471	0.331633
222	H	0.73714	0.604232	0.334959
223	H	0.737096	0.481224	0.333884
224	C	0.33239	0.163666	0.665198
225	C	0.30559	0.126308	0.35996
226	N	0.259782	0.104504	0.357489
227	C	0.236622	0.116038	0.661651
228	C	0.261288	0.152888	0.631949
229	C	0.3091	0.176288	0.634399
230	H	0.327402	0.202629	0.612926
231	C	0.188795	0.092231	0.660988
232	C	0.117209	0.080793	0.631805
233	H	0.320112	0.115758	0.383457
234	C	0.165085	0.105021	0.630642
235	C	0.189798	0.141247	0.600534
236	C	0.237564	0.16501	0.601178
237	H	0.099574	0.089267	0.609883
238	O	0.168216	0.154851	0.571425
239	H	0.163534	0.137335	0.543774
240	O	0.260095	0.200568	0.572679
241	H	0.265576	0.188077	0.545212
242	C	0.828761	0.165092	0.665593
243	C	0.818223	0.127967	0.360704
244	N	0.84209	0.10601	0.358471
245	C	0.876732	0.117246	0.662644
246	C	0.88902	0.15396	0.632727
247	C	0.86468	0.177444	0.634865
248	H	0.872676	0.203536	0.613071
249	C	0.900512	0.093192	0.662087
250	C	0.960196	0.08112	0.632767
251	H	0.793093	0.117545	0.384121
252	C	0.936876	0.105654	0.631651
253	C	0.948593	0.141841	0.601439
254	C	0.924816	0.165818	0.601962
255	H	0.986149	0.089335	0.610711
256	O	0.983733	0.155175	0.572317
257	H	0.97081	0.137601	0.544713
258	O	0.937983	0.201291	0.573319
259	H	0.92009	0.188733	0.545819
260	C	0.827273	0.660026	0.664963
261	C	0.816821	0.686506	0.360315
262	N	0.840897	0.73234	0.358401
263	C	0.875589	0.755811	0.66263
264	C	0.887649	0.731441	0.632382
265	C	0.86315	0.683636	0.634222
266	H	0.871045	0.665577	0.612263
267	C	0.899646	0.803639	0.662412
268	C	0.910802	0.873431	0.359407
269	C	0.947701	0.899423	0.663857
270	C	0.959627	0.875347	0.63337
271	H	0.791645	0.671694	0.383672
272	N	0.888768	0.82757	0.357932
273	C	0.936003	0.827529	0.631956
274	C	0.947413	0.803112	0.601369
275	C	0.923383	0.755378	0.60157
276	H	0.985529	0.893076	0.611257
277	H	0.900686	0.888631	0.382576
278	O	0.982465	0.82492	0.572149
279	H	0.969521	0.829926	0.544753
280	O	0.936248	0.733104	0.572545
281	H	0.918227	0.72801	0.545182
282	C	0.479185	0.166552	0.34155
283	C	0.498668	0.161132	0.635368
284	N	0.535562	0.156118	0.637812
285	C	0.555072	0.154745	0.343753
286	C	0.536149	0.158476	0.384875
287	C	0.498021	0.164412	0.383035
288	H	0.486146	0.171114	0.411886
289	C	0.596485	0.15485	0.343582
290	C	0.659152	0.161597	0.634681
291	C	0.684332	0.167072	0.340692
292	C	0.663589	0.164827	0.382324
293	H	0.488118	0.165174	0.604486
294	N	0.617178	0.156375	0.637467
295	C	0.619439	0.158648	0.384523
296	C	0.599208	0.159757	0.425592
297	C	0.557796	0.15967	0.42577
298	H	0.682345	0.171549	0.411051
299	H	0.673526	0.165735	0.603671
300	O	0.620789	0.164623	0.465357
301	H	0.611601	0.133839	0.475614
302	O	0.541275	0.164445	0.465692
303	H	0.519903	0.133629	0.476043
304	C	0.825103	0.308766	0.333013
305	C	0.824497	0.330604	0.626408
306	N	0.829694	0.372595	0.628014
307	C	0.836923	0.396452	0.333272
308	C	0.839519	0.37703	0.374514
309	C	0.833498	0.332904	0.373659
310	H	0.831212	0.316572	0.403197
311	C	0.836644	0.437658	0.332991
312	C	0.823346	0.490093	0.625366
313	C	0.823791	0.512892	0.331637
314	C	0.832475	0.497797	0.37256
315	H	0.815828	0.313701	0.596475
316	N	0.829115	0.45367	0.627471
317	C	0.83899	0.460001	0.373958
318	C	0.844188	0.441894	0.414775
319	C	0.844445	0.40066	0.41505
320	H	0.830113	0.512094	0.401893
321	H	0.814668	0.49801	0.595265
322	O	0.845373	0.461721	0.454751
323	H	0.877349	0.48403	0.460235
324	O	0.845862	0.382553	0.455281
325	H	0.877919	0.392626	0.460866
326	C	0.682714	0.513551	0.336107
327	C	0.65892	0.492226	0.629888
328	N	0.617042	0.455356	0.632428
329	C	0.59518	0.437533	0.338413
330	C	0.61668	0.458375	0.379452
331	C	0.660692	0.496607	0.377575
332	H	0.678529	0.509698	0.40663
333	C	0.55406	0.395965	0.338691
334	C	0.499559	0.331347	0.63098
335	C	0.478956	0.307806	0.337505
336	C	0.496178	0.3304	0.378691
337	H	0.674259	0.501474	0.599186
338	N	0.536062	0.373525	0.632985
339	C	0.5339	0.374735	0.380015
340	C	0.554033	0.396837	0.420826
341	C	0.595191	0.438399	0.420547
342	H	0.483449	0.312869	0.407974
343	H	0.490265	0.315596	0.600484
344	O	0.536302	0.376962	0.461033
345	H	0.51422	0.386275	0.469122
346	O	0.615317	0.456779	0.460497
347	H	0.605383	0.478381	0.468575
348	C	0.948686	0.972511	0.665352
349	C	0.971875	0.947826	0.664956
350	C	0.019773	0.972426	0.664155
351	H	0.914058	0.955228	0.66448
352	H	0.037067	0.955083	0.663837
353	H	0.037234	0.078064	0.66328
354	C	0.453057	0.188177	0.67272
355	C	0.476378	0.235804	0.672696
356	C	0.453018	0.260007	0.670269
357	C	0.405363	0.235853	0.667796
358	C	0.380758	0.187816	0.667853
359	C	0.405368	0.164464	0.670397
360	H	0.388515	0.253617	0.66678
361	H	0.388598	0.129856	0.66976
362	H	0.511069	0.253217	0.674433
363	C	0.803598	0.260981	0.667152
364	C	0.756055	0.236536	0.669844
365	C	0.732068	0.188934	0.671332
366	C	0.756344	0.165487	0.670273
367	C	0.804305	0.189059	0.667511
368	C	0.82741	0.23708	0.66614
369	H	0.738698	0.130871	0.670608
370	H	0.862011	0.255046	0.664933
371	H	0.73855	0.253753	0.670819
372	C	0.730517	0.539513	0.668117
373	C	0.754582	0.515948	0.666901
374	C	0.802184	0.539088	0.665503
375	C	0.825972	0.586794	0.665436
376	C	0.802783	0.611637	0.666508
377	C	0.754782	0.587247	0.668198
378	H	0.860593	0.603471	0.664966
379	H	0.73714	0.604232	0.668292
380	H	0.737096	0.481224	0.667216
381	C	0.33239	0.163666	0.998532
382	C	0.30559	0.126308	0.693294
383	N	0.259782	0.104504	0.690824
384	C	0.236622	0.116038	0.994986
385	C	0.261288	0.152888	0.96528
386	C	0.3091	0.176288	0.967734
387	H	0.327402	0.202629	0.946258
388	C	0.188795	0.092231	0.994319
389	C	0.117209	0.080793	0.96514
390	H	0.320112	0.115758	0.716792
391	C	0.165085	0.105021	0.963973
392	C	0.189798	0.141247	0.933869
393	C	0.237564	0.16501	0.934509
394	H	0.099574	0.089267	0.943214
395	O	0.168216	0.154851	0.904756
396	H	0.163534	0.137335	0.877109
397	O	0.260095	0.200568	0.90601
398	H	0.265576	0.188077	0.878547
399	C	0.828761	0.165092	0.998925
400	C	0.818223	0.127967	0.694039
401	N	0.84209	0.10601	0.691803
402	C	0.876732	0.117246	0.995978
403	C	0.88902	0.15396	0.966058
404	C	0.86468	0.177444	0.9682
405	H	0.872676	0.203536	0.946405
406	C	0.900512	0.093192	0.995422
407	C	0.960196	0.08112	0.966102
408	H	0.793093	0.117545	0.717456
409	C	0.936876	0.105654	0.964982
410	C	0.948593	0.141841	0.934774
411	C	0.924816	0.165818	0.935293
412	H	0.986149	0.089335	0.944045
413	O	0.983733	0.155175	0.905648
414	H	0.97081	0.137601	0.878048
415	O	0.937983	0.201291	0.90665
416	H	0.92009	0.188733	0.879154
417	C	0.827273	0.660026	0.998294
418	C	0.816821	0.686506	0.69365
419	N	0.840897	0.73234	0.691736
420	C	0.875589	0.755811	0.995965
421	C	0.887649	0.731441	0.965716
422	C	0.86315	0.683636	0.967553
423	H	0.871045	0.665577	0.945597
424	C	0.899646	0.803639	0.995747
425	C	0.910802	0.873431	0.692741
426	C	0.947701	0.899423	0.997188
427	C	0.959627	0.875347	0.966705
428	H	0.791645	0.671694	0.717007
429	N	0.888768	0.82757	0.691266
430	C	0.936003	0.827529	0.965287
431	C	0.947413	0.803112	0.9347
432	C	0.923383	0.755378	0.934901
433	H	0.985529	0.893076	0.944588
434	H	0.900686	0.888631	0.715907
435	O	0.982465	0.82492	0.905484
436	H	0.969521	0.829926	0.878084
437	O	0.936248	0.733104	0.905879
438	H	0.918227	0.72801	0.878517
439	C	0.479185	0.166552	0.674885
440	C	0.498668	0.161132	0.968703
441	N	0.535562	0.156118	0.971143
442	C	0.555072	0.154745	0.677087
443	C	0.536149	0.158476	0.718207
444	C	0.498021	0.164412	0.71637
445	H	0.486146	0.171114	0.74522
446	C	0.596485	0.15485	0.676913
447	C	0.659152	0.161597	0.968016
448	C	0.684332	0.167072	0.674024
449	C	0.663589	0.164827	0.715656
450	H	0.488118	0.165174	0.937821
451	N	0.617178	0.156375	0.970801
452	C	0.619439	0.158648	0.717855
453	C	0.599208	0.159757	0.758927
454	C	0.557796	0.15967	0.759101
455	H	0.682345	0.171549	0.744382
456	H	0.673526	0.165735	0.937003
457	O	0.620789	0.164623	0.798689
458	H	0.611601	0.133839	0.808946
459	O	0.541275	0.164445	0.799027
460	H	0.519903	0.133629	0.809375
461	C	0.825103	0.308766	0.666348
462	C	0.824497	0.330604	0.95974
463	N	0.829694	0.372595	0.961345
464	C	0.836923	0.396452	0.666606
465	C	0.839519	0.37703	0.707849
466	C	0.833498	0.332904	0.706994
467	H	0.831212	0.316572	0.736529
468	C	0.836644	0.437658	0.666324
469	C	0.823346	0.490093	0.958697
470	C	0.823791	0.512892	0.66497
471	C	0.832475	0.497797	0.705891
472	H	0.815828	0.313701	0.929809
473	N	0.829115	0.45367	0.960805
474	C	0.83899	0.460001	0.707292
475	C	0.844188	0.441894	0.748107
476	C	0.844445	0.40066	0.748385
477	H	0.830113	0.512094	0.735228
478	H	0.814668	0.49801	0.928596
479	O	0.845373	0.461721	0.788083
480	H	0.877349	0.48403	0.79357
481	O	0.845862	0.382553	0.788616
482	H	0.877919	0.392626	0.7942
483	C	0.682714	0.513551	0.669438
484	C	0.65892	0.492226	0.963222
485	N	0.617042	0.455356	0.965763
486	C	0.59518	0.437533	0.671748
487	C	0.61668	0.458375	0.712786
488	C	0.660692	0.496607	0.710906
489	H	0.678529	0.509698	0.739965
490	C	0.55406	0.395965	0.672022
491	C	0.499559	0.331347	0.964312
492	C	0.478956	0.307806	0.670836
493	C	0.496178	0.3304	0.712022
494	H	0.674259	0.501474	0.932521
495	N	0.536062	0.373525	0.96632
496	C	0.5339	0.374735	0.713346
497	C	0.554033	0.396837	0.754157
498	C	0.595191	0.438399	0.753879
499	H	0.483449	0.312869	0.741305
500	H	0.490265	0.315596	0.933815
501	O	0.536302	0.376962	0.794368
502	H	0.51422	0.386275	0.802453
503	O	0.615317	0.456779	0.793828
504	H	0.605383	0.478381	0.801906
