data_C252H108N180O36_2018-02-15_10:38:10
#******************************************
#
# CIF file created by Zeo++
# Zeo++ is an open source package to
# analyze microporous materials
#
#*******************************************

_cell_length_a		29.0727   
_cell_length_b		29.0727   
_cell_length_c		29.7318   
_cell_angle_alpha		90   
_cell_angle_beta		90   
_cell_angle_gamma		120   

_symmetry_space_group_name_H-M		'P1'
_symmetry_Int_Tables_number		1
_symmetry_cell_setting		Monoclinic

loop_
_symmetry_equiv_pos_as_xyz
'+x,+y,+z'

loop_
_atom_site_label
_atom_site_type_symbol
_atom_site_fract_x
_atom_site_fract_y
_atom_site_fract_z
1	C	0.031225	0.226865	0.353443
2	C	0.062856	0.2827	0.020987
3	N	0.036513	0.310193	0.024298
4	H	0.047488	0.202873	0.351173
5	C	0.031225	0.226865	0.686777
6	C	0.062856	0.2827	0.354321
7	N	0.036513	0.310193	0.357631
8	H	0.047488	0.202873	0.684503
9	C	0.031225	0.226865	0.020111
10	C	0.062856	0.2827	0.687652
11	N	0.036513	0.310193	0.690965
12	H	0.047488	0.202873	0.017839
13	C	0.031224	0.726865	0.353443
14	C	0.062856	0.7827	0.020987
15	N	0.036512	0.810193	0.024298
16	H	0.047486	0.702872	0.351173
17	C	0.031224	0.726865	0.686777
18	C	0.062856	0.7827	0.354321
19	N	0.036512	0.810193	0.357631
20	H	0.047486	0.702872	0.684503
21	C	0.031224	0.726865	0.020111
22	C	0.062856	0.7827	0.687652
23	N	0.036512	0.810193	0.690965
24	H	0.047486	0.702872	0.017839
25	C	0.118794	0.310322	0.020052
26	C	0.118794	0.310322	0.353386
27	C	0.118794	0.310322	0.686717
28	C	0.118792	0.81032	0.020052
29	C	0.118792	0.81032	0.353386
30	C	0.118792	0.81032	0.686717
31	C	0.200573	0.392494	0.020033
32	N	0.146556	0.364357	0.020099
33	N	0.146931	0.284442	0.02012
34	C	0.200966	0.310716	0.020056
35	N	0.226846	0.364733	0.020103
36	C	0.315859	0.116403	0.024157
37	N	0.36959	0.147689	0.023932
38	C	0.394884	0.201699	0.024183
39	N	0.363597	0.224143	0.023965
40	C	0.309587	0.195427	0.02419
41	N	0.287143	0.141697	0.02394
42	C	0.279449	0.221413	0.024636
43	N	0.306852	0.275456	0.354927
44	C	0.284423	0.306603	0.353454
45	C	0.228588	0.2824	0.020993
46	N	0.201094	0.228563	0.024302
47	C	0.223042	0.196827	0.026524
48	H	0.308415	0.346858	0.351183
49	C	0.186857	0.142292	0.033468
50	O	0.141201	0.119069	0.009448
51	N	0.189348	0.116325	0.070297
52	H	0.217903	0.13361	0.092148
53	H	0.161154	0.080274	0.076517
54	C	0.28987	0.06028	0.024553
55	N	0.235826	0.033639	0.354863
56	C	0.204683	0.480063	0.353383
57	C	0.228888	0.448432	0.02093
58	N	0.282724	0.474777	0.024244
59	C	0.314466	0.028468	0.026418
60	H	0.164426	0.463795	0.35115
61	C	0.368983	0.046796	0.033496
62	O	0.392265	0.024566	0.009291
63	N	0.394774	0.075166	0.070407
64	H	0.377417	0.086415	0.092204
65	H	0.430869	0.083181	0.076636
66	C	0.451007	0.231837	0.024628
67	N	0.477648	0.204435	0.354913
68	C	0.482828	0.288244	0.026521
69	C	0.464478	0.324428	0.033467
70	O	0.486903	0.37008	0.009442
71	N	0.436033	0.321943	0.070303
72	H	0.424771	0.293392	0.092157
73	H	0.428177	0.350137	0.076526
74	C	0.200573	0.392494	0.353366
75	N	0.146556	0.364357	0.353433
76	N	0.146931	0.284442	0.353454
77	C	0.200966	0.310716	0.35339
78	N	0.226846	0.364733	0.353437
79	C	0.315859	0.116403	0.35749
80	N	0.36959	0.147689	0.357264
81	C	0.394884	0.201699	0.357517
82	N	0.363597	0.224143	0.357298
83	C	0.309587	0.195427	0.357523
84	N	0.287143	0.141697	0.357274
85	C	0.279449	0.221413	0.357967
86	N	0.306852	0.275456	0.688257
87	C	0.284423	0.306603	0.686787
88	C	0.228588	0.2824	0.354325
89	N	0.201094	0.228563	0.357634
90	C	0.223042	0.196827	0.359857
91	H	0.308415	0.346858	0.684517
92	C	0.186857	0.142292	0.366803
93	O	0.141201	0.119069	0.342781
94	N	0.189348	0.116325	0.403629
95	H	0.217903	0.13361	0.425481
96	H	0.161154	0.080274	0.409851
97	C	0.28987	0.06028	0.357887
98	N	0.235826	0.033639	0.688196
99	C	0.204683	0.480063	0.686713
100	C	0.228888	0.448432	0.354264
101	N	0.282724	0.474777	0.357577
102	C	0.314466	0.028468	0.35975
103	H	0.164426	0.463795	0.684483
104	C	0.368983	0.046796	0.36683
105	O	0.392265	0.024566	0.342623
106	N	0.394774	0.075166	0.40374
107	H	0.377417	0.086415	0.425538
108	H	0.430869	0.083181	0.409969
109	C	0.451007	0.231837	0.357961
110	N	0.477648	0.204435	0.688247
111	C	0.482828	0.288244	0.359854
112	C	0.464478	0.324428	0.3668
113	O	0.486903	0.37008	0.342775
114	N	0.436033	0.321943	0.403636
115	H	0.424771	0.293392	0.425491
116	H	0.428177	0.350137	0.409858
117	C	0.200573	0.392494	0.6867
118	N	0.146556	0.364357	0.686764
119	N	0.146931	0.284442	0.686787
120	C	0.200966	0.310716	0.68672
121	N	0.226846	0.364733	0.68677
122	C	0.315859	0.116403	0.690823
123	N	0.36959	0.147689	0.690598
124	C	0.394884	0.201699	0.69085
125	N	0.363597	0.224143	0.690632
126	C	0.309587	0.195427	0.690857
127	N	0.287143	0.141697	0.690605
128	C	0.279449	0.221413	0.691301
129	N	0.306852	0.275456	0.021593
130	C	0.284423	0.306603	0.02012
131	C	0.228588	0.2824	0.687658
132	N	0.201094	0.228563	0.690968
133	C	0.223042	0.196827	0.693191
134	H	0.308415	0.346858	0.017851
135	C	0.186857	0.142292	0.700133
136	O	0.141201	0.119069	0.676115
137	N	0.189348	0.116325	0.736962
138	H	0.217903	0.13361	0.758815
139	H	0.161154	0.080274	0.743185
140	C	0.28987	0.06028	0.69122
141	N	0.235826	0.033639	0.021529
142	C	0.204683	0.480063	0.020048
143	C	0.228888	0.448432	0.687598
144	N	0.282724	0.474777	0.690911
145	C	0.314466	0.028468	0.693084
146	H	0.164426	0.463795	0.017816
147	C	0.368983	0.046796	0.700163
148	O	0.392265	0.024566	0.675957
149	N	0.394774	0.075166	0.737073
150	H	0.377417	0.086415	0.758868
151	H	0.430869	0.083181	0.743303
152	C	0.451007	0.231837	0.691294
153	N	0.477648	0.204435	0.021581
154	C	0.482828	0.288244	0.693188
155	C	0.464478	0.324428	0.700133
156	O	0.486903	0.37008	0.676108
157	N	0.436033	0.321943	0.736969
158	H	0.424771	0.293392	0.758825
159	H	0.428177	0.350137	0.743192
160	C	0.200572	0.892496	0.020033
161	N	0.146554	0.864356	0.020099
162	N	0.146931	0.784444	0.02012
163	C	0.200966	0.810717	0.020056
164	N	0.226845	0.864733	0.020103
165	C	0.315857	0.616402	0.024157
166	N	0.369589	0.647688	0.023932
167	C	0.394883	0.7017	0.024183
168	N	0.363595	0.72414	0.023965
169	C	0.309586	0.695428	0.02419
170	N	0.287142	0.641698	0.02394
171	C	0.279447	0.721412	0.024636
172	N	0.306851	0.775456	0.354927
173	C	0.284422	0.806602	0.353454
174	C	0.228586	0.782398	0.020993
175	N	0.201092	0.728561	0.024302
176	C	0.223041	0.696827	0.026524
177	H	0.308413	0.846856	0.351183
178	C	0.186855	0.64229	0.033468
179	O	0.141199	0.619067	0.009448
180	N	0.189346	0.616323	0.070297
181	H	0.217901	0.633608	0.092148
182	H	0.161152	0.580271	0.076517
183	C	0.28987	0.560281	0.024553
184	N	0.235825	0.533639	0.354863
185	C	0.204681	0.980061	0.353383
186	C	0.228888	0.948434	0.02093
187	N	0.282725	0.974779	0.024244
188	C	0.314465	0.528467	0.026418
189	H	0.164423	0.963793	0.35115
190	C	0.368983	0.546797	0.033496
191	O	0.392265	0.524567	0.009291
192	N	0.394773	0.575167	0.070407
193	H	0.377416	0.586415	0.092204
194	H	0.430869	0.583178	0.076636
195	C	0.451007	0.731838	0.024628
196	N	0.477646	0.704432	0.354913
197	C	0.482828	0.788245	0.026521
198	C	0.464476	0.824427	0.033467
199	O	0.486902	0.870079	0.009442
200	N	0.436031	0.821941	0.070303
201	H	0.424771	0.793392	0.092157
202	H	0.428176	0.850137	0.076526
203	C	0.200572	0.892496	0.353366
204	N	0.146554	0.864356	0.353433
205	N	0.146931	0.784444	0.353454
206	C	0.200966	0.810717	0.35339
207	N	0.226845	0.864733	0.353437
208	C	0.315857	0.616402	0.35749
209	N	0.369589	0.647688	0.357264
210	C	0.394883	0.7017	0.357517
211	N	0.363595	0.72414	0.357298
212	C	0.309586	0.695428	0.357523
213	N	0.287142	0.641698	0.357274
214	C	0.279447	0.721412	0.357967
215	N	0.306851	0.775456	0.688257
216	C	0.284422	0.806602	0.686787
217	C	0.228586	0.782398	0.354325
218	N	0.201092	0.728561	0.357634
219	C	0.223041	0.696827	0.359857
220	H	0.308413	0.846856	0.684517
221	C	0.186855	0.64229	0.366803
222	O	0.141199	0.619067	0.342781
223	N	0.189346	0.616323	0.403629
224	H	0.217901	0.633608	0.425481
225	H	0.161152	0.580271	0.409851
226	C	0.28987	0.560281	0.357887
227	N	0.235825	0.533639	0.688196
228	C	0.204681	0.980061	0.686713
229	C	0.228888	0.948434	0.354264
230	N	0.282725	0.974779	0.357577
231	C	0.314465	0.528467	0.35975
232	H	0.164423	0.963793	0.684483
233	C	0.368983	0.546797	0.36683
234	O	0.392265	0.524567	0.342623
235	N	0.394773	0.575167	0.40374
236	H	0.377416	0.586415	0.425538
237	H	0.430869	0.583178	0.409969
238	C	0.451007	0.731838	0.357961
239	N	0.477646	0.704432	0.688247
240	C	0.482828	0.788245	0.359854
241	C	0.464476	0.824427	0.3668
242	O	0.486902	0.870079	0.342775
243	N	0.436031	0.821941	0.403636
244	H	0.424771	0.793392	0.425491
245	H	0.428176	0.850137	0.409858
246	C	0.200572	0.892496	0.6867
247	N	0.146554	0.864356	0.686764
248	N	0.146931	0.784444	0.686787
249	C	0.200966	0.810717	0.68672
250	N	0.226845	0.864733	0.68677
251	C	0.315857	0.616402	0.690823
252	N	0.369589	0.647688	0.690598
253	C	0.394883	0.7017	0.69085
254	N	0.363595	0.72414	0.690632
255	C	0.309586	0.695428	0.690857
256	N	0.287142	0.641698	0.690605
257	C	0.279447	0.721412	0.691301
258	N	0.306851	0.775456	0.021593
259	C	0.284422	0.806602	0.02012
260	C	0.228586	0.782398	0.687658
261	N	0.201092	0.728561	0.690968
262	C	0.223041	0.696827	0.693191
263	H	0.308413	0.846856	0.017851
264	C	0.186855	0.64229	0.700133
265	O	0.141199	0.619067	0.676115
266	N	0.189346	0.616323	0.736962
267	H	0.217901	0.633608	0.758815
268	H	0.161152	0.580271	0.743185
269	C	0.28987	0.560281	0.69122
270	N	0.235825	0.533639	0.021529
271	C	0.204681	0.980061	0.020048
272	C	0.228888	0.948434	0.687598
273	N	0.282725	0.974779	0.690911
274	C	0.314465	0.528467	0.693084
275	H	0.164423	0.963793	0.017816
276	C	0.368983	0.546797	0.700163
277	O	0.392265	0.524567	0.675957
278	N	0.394773	0.575167	0.737073
279	H	0.377416	0.586415	0.758868
280	H	0.430869	0.583178	0.743303
281	C	0.451007	0.731838	0.691294
282	N	0.477646	0.704432	0.021581
283	C	0.482828	0.788245	0.693188
284	C	0.464476	0.824427	0.700133
285	O	0.486902	0.870079	0.676108
286	N	0.436031	0.821941	0.736969
287	H	0.424771	0.793392	0.758825
288	H	0.428176	0.850137	0.743192
289	C	0.700572	0.392494	0.020033
290	N	0.646555	0.364357	0.020099
291	C	0.618795	0.310322	0.020052
292	N	0.646931	0.284442	0.02012
293	C	0.700965	0.310716	0.020056
294	N	0.726846	0.364733	0.020103
295	C	0.815857	0.116403	0.024157
296	N	0.869591	0.147689	0.023932
297	C	0.894883	0.201699	0.024183
298	N	0.863597	0.224143	0.023965
299	C	0.809587	0.195427	0.02419
300	N	0.787142	0.141697	0.02394
301	C	0.779447	0.221413	0.024636
302	N	0.806853	0.275456	0.354927
303	C	0.784422	0.306603	0.353454
304	C	0.728589	0.2824	0.020993
305	N	0.701093	0.228563	0.024302
306	C	0.72304	0.196827	0.026524
307	H	0.808416	0.346858	0.351183
308	C	0.686857	0.142292	0.033468
309	O	0.6412	0.119069	0.009448
310	N	0.689349	0.116325	0.070297
311	H	0.717904	0.13361	0.092148
312	H	0.661152	0.080274	0.076517
313	C	0.78987	0.06028	0.024553
314	N	0.735827	0.033639	0.354863
315	C	0.704683	0.480063	0.353383
316	C	0.728888	0.448432	0.02093
317	N	0.782724	0.474777	0.024244
318	C	0.814466	0.028468	0.026418
319	H	0.664426	0.463795	0.35115
320	C	0.868985	0.046796	0.033496
321	O	0.892267	0.024566	0.009291
322	N	0.894772	0.075166	0.070407
323	H	0.877416	0.086415	0.092204
324	H	0.930871	0.083181	0.076636
325	C	0.951007	0.231837	0.024628
326	N	0.977647	0.204435	0.354913
327	C	0.531226	0.226865	0.353443
328	C	0.562855	0.2827	0.020987
329	N	0.536512	0.310193	0.024298
330	C	0.982829	0.288244	0.026521
331	H	0.547487	0.202873	0.351173
332	C	0.964478	0.324428	0.033467
333	O	0.986902	0.37008	0.009442
334	N	0.936031	0.321943	0.070303
335	H	0.924772	0.293392	0.092157
336	H	0.928177	0.350137	0.076526
337	C	0.700572	0.392494	0.353366
338	N	0.646555	0.364357	0.353433
339	C	0.618795	0.310322	0.353386
340	N	0.646931	0.284442	0.353454
341	C	0.700965	0.310716	0.35339
342	N	0.726846	0.364733	0.353437
343	C	0.815857	0.116403	0.35749
344	N	0.869591	0.147689	0.357264
345	C	0.894883	0.201699	0.357517
346	N	0.863597	0.224143	0.357298
347	C	0.809587	0.195427	0.357523
348	N	0.787142	0.141697	0.357274
349	C	0.779447	0.221413	0.357967
350	N	0.806853	0.275456	0.688257
351	C	0.784422	0.306603	0.686787
352	C	0.728589	0.2824	0.354325
353	N	0.701093	0.228563	0.357634
354	C	0.72304	0.196827	0.359857
355	H	0.808416	0.346858	0.684517
356	C	0.686857	0.142292	0.366803
357	O	0.6412	0.119069	0.342781
358	N	0.689349	0.116325	0.403629
359	H	0.717904	0.13361	0.425481
360	H	0.661152	0.080274	0.409851
361	C	0.78987	0.06028	0.357887
362	N	0.735827	0.033639	0.688196
363	C	0.704683	0.480063	0.686713
364	C	0.728888	0.448432	0.354264
365	N	0.782724	0.474777	0.357577
366	C	0.814466	0.028468	0.35975
367	H	0.664426	0.463795	0.684483
368	C	0.868985	0.046796	0.36683
369	O	0.892267	0.024566	0.342623
370	N	0.894772	0.075166	0.40374
371	H	0.877416	0.086415	0.425538
372	H	0.930871	0.083181	0.409969
373	C	0.951007	0.231837	0.357961
374	N	0.977647	0.204435	0.688247
375	C	0.531226	0.226865	0.686777
376	C	0.562855	0.2827	0.354321
377	N	0.536512	0.310193	0.357631
378	C	0.982829	0.288244	0.359854
379	H	0.547487	0.202873	0.684503
380	C	0.964478	0.324428	0.3668
381	O	0.986902	0.37008	0.342775
382	N	0.936031	0.321943	0.403636
383	H	0.924772	0.293392	0.425491
384	H	0.928177	0.350137	0.409858
385	C	0.700572	0.392494	0.6867
386	N	0.646555	0.364357	0.686764
387	C	0.618795	0.310322	0.686717
388	N	0.646931	0.284442	0.686787
389	C	0.700965	0.310716	0.68672
390	N	0.726846	0.364733	0.68677
391	C	0.815857	0.116403	0.690823
392	N	0.869591	0.147689	0.690598
393	C	0.894883	0.201699	0.69085
394	N	0.863597	0.224143	0.690632
395	C	0.809587	0.195427	0.690857
396	N	0.787142	0.141697	0.690605
397	C	0.779447	0.221413	0.691301
398	N	0.806853	0.275456	0.021593
399	C	0.784422	0.306603	0.02012
400	C	0.728589	0.2824	0.687658
401	N	0.701093	0.228563	0.690968
402	C	0.72304	0.196827	0.693191
403	H	0.808416	0.346858	0.017851
404	C	0.686857	0.142292	0.700133
405	O	0.6412	0.119069	0.676115
406	N	0.689349	0.116325	0.736962
407	H	0.717904	0.13361	0.758815
408	H	0.661152	0.080274	0.743185
409	C	0.78987	0.06028	0.69122
410	N	0.735827	0.033639	0.021529
411	C	0.704683	0.480063	0.020048
412	C	0.728888	0.448432	0.687598
413	N	0.782724	0.474777	0.690911
414	C	0.814466	0.028468	0.693084
415	H	0.664426	0.463795	0.017816
416	C	0.868985	0.046796	0.700163
417	O	0.892267	0.024566	0.675957
418	N	0.894772	0.075166	0.737073
419	H	0.877416	0.086415	0.758868
420	H	0.930871	0.083181	0.743303
421	C	0.951007	0.231837	0.691294
422	N	0.977647	0.204435	0.021581
423	C	0.531226	0.226865	0.020111
424	C	0.562855	0.2827	0.687652
425	N	0.536512	0.310193	0.690965
426	C	0.982829	0.288244	0.693188
427	H	0.547487	0.202873	0.017839
428	C	0.964478	0.324428	0.700133
429	O	0.986902	0.37008	0.676108
430	N	0.936031	0.321943	0.736969
431	H	0.924772	0.293392	0.758825
432	H	0.928177	0.350137	0.743192
433	C	0.700572	0.892496	0.020033
434	N	0.646554	0.864356	0.020099
435	C	0.618792	0.81032	0.020052
436	N	0.646931	0.784444	0.02012
437	C	0.700966	0.810717	0.020056
438	N	0.726845	0.864733	0.020103
439	C	0.815858	0.616402	0.024157
440	N	0.869588	0.647688	0.023932
441	C	0.894881	0.7017	0.024183
442	N	0.863594	0.72414	0.023965
443	C	0.809586	0.695428	0.02419
444	N	0.787141	0.641698	0.02394
445	C	0.779448	0.721412	0.024636
446	N	0.806852	0.775456	0.354927
447	C	0.78442	0.806602	0.353454
448	C	0.728586	0.782398	0.020993
449	N	0.701091	0.728561	0.024302
450	C	0.723042	0.696827	0.026524
451	H	0.808413	0.846856	0.351183
452	C	0.686855	0.64229	0.033468
453	O	0.641199	0.619067	0.009448
454	N	0.689346	0.616323	0.070297
455	H	0.717901	0.633608	0.092148
456	H	0.661153	0.580271	0.076517
457	C	0.789869	0.560281	0.024553
458	N	0.735825	0.533639	0.354863
459	C	0.704681	0.980061	0.353383
460	C	0.728888	0.948434	0.02093
461	N	0.782724	0.974779	0.024244
462	C	0.814464	0.528467	0.026418
463	H	0.664423	0.963793	0.35115
464	C	0.868984	0.546797	0.033496
465	O	0.892265	0.524567	0.009291
466	N	0.894774	0.575167	0.070407
467	H	0.877415	0.586415	0.092204
468	H	0.930868	0.583178	0.076636
469	C	0.951006	0.731838	0.024628
470	N	0.977647	0.704432	0.354913
471	C	0.531224	0.726865	0.353443
472	C	0.562855	0.7827	0.020987
473	N	0.536512	0.810193	0.024298
474	C	0.982828	0.788245	0.026521
475	H	0.547486	0.702872	0.351173
476	C	0.964476	0.824427	0.033467
477	O	0.986903	0.870079	0.009442
478	N	0.936032	0.821941	0.070303
479	H	0.924771	0.793392	0.092157
480	H	0.928175	0.850137	0.076526
481	C	0.700572	0.892496	0.353366
482	N	0.646554	0.864356	0.353433
483	C	0.618792	0.81032	0.353386
484	N	0.646931	0.784444	0.353454
485	C	0.700966	0.810717	0.35339
486	N	0.726845	0.864733	0.353437
487	C	0.815858	0.616402	0.35749
488	N	0.869588	0.647688	0.357264
489	C	0.894881	0.7017	0.357517
490	N	0.863594	0.72414	0.357298
491	C	0.809586	0.695428	0.357523
492	N	0.787141	0.641698	0.357274
493	C	0.779448	0.721412	0.357967
494	N	0.806852	0.775456	0.688257
495	C	0.78442	0.806602	0.686787
496	C	0.728586	0.782398	0.354325
497	N	0.701091	0.728561	0.357634
498	C	0.723042	0.696827	0.359857
499	H	0.808413	0.846856	0.684517
500	C	0.686855	0.64229	0.366803
501	O	0.641199	0.619067	0.342781
502	N	0.689346	0.616323	0.403629
503	H	0.717901	0.633608	0.425481
504	H	0.661153	0.580271	0.409851
505	C	0.789869	0.560281	0.357887
506	N	0.735825	0.533639	0.688196
507	C	0.704681	0.980061	0.686713
508	C	0.728888	0.948434	0.354264
509	N	0.782724	0.974779	0.357577
510	C	0.814464	0.528467	0.35975
511	H	0.664423	0.963793	0.684483
512	C	0.868984	0.546797	0.36683
513	O	0.892265	0.524567	0.342623
514	N	0.894774	0.575167	0.40374
515	H	0.877415	0.586415	0.425538
516	H	0.930868	0.583178	0.409969
517	C	0.951006	0.731838	0.357961
518	N	0.977647	0.704432	0.688247
519	C	0.531224	0.726865	0.686777
520	C	0.562855	0.7827	0.354321
521	N	0.536512	0.810193	0.357631
522	C	0.982828	0.788245	0.359854
523	H	0.547486	0.702872	0.684503
524	C	0.964476	0.824427	0.3668
525	O	0.986903	0.870079	0.342775
526	N	0.936032	0.821941	0.403636
527	H	0.924771	0.793392	0.425491
528	H	0.928175	0.850137	0.409858
529	C	0.700572	0.892496	0.6867
530	N	0.646554	0.864356	0.686764
531	C	0.618792	0.81032	0.686717
532	N	0.646931	0.784444	0.686787
533	C	0.700966	0.810717	0.68672
534	N	0.726845	0.864733	0.68677
535	C	0.815858	0.616402	0.690823
536	N	0.869588	0.647688	0.690598
537	C	0.894881	0.7017	0.69085
538	N	0.863594	0.72414	0.690632
539	C	0.809586	0.695428	0.690857
540	N	0.787141	0.641698	0.690605
541	C	0.779448	0.721412	0.691301
542	N	0.806852	0.775456	0.021593
543	C	0.78442	0.806602	0.02012
544	C	0.728586	0.782398	0.687658
545	N	0.701091	0.728561	0.690968
546	C	0.723042	0.696827	0.693191
547	H	0.808413	0.846856	0.017851
548	C	0.686855	0.64229	0.700133
549	O	0.641199	0.619067	0.676115
550	N	0.689346	0.616323	0.736962
551	H	0.717901	0.633608	0.758815
552	H	0.661153	0.580271	0.743185
553	C	0.789869	0.560281	0.69122
554	N	0.735825	0.533639	0.021529
555	C	0.704681	0.980061	0.020048
556	C	0.728888	0.948434	0.687598
557	N	0.782724	0.974779	0.690911
558	C	0.814464	0.528467	0.693084
559	H	0.664423	0.963793	0.017816
560	C	0.868984	0.546797	0.700163
561	O	0.892265	0.524567	0.675957
562	N	0.894774	0.575167	0.737073
563	H	0.877415	0.586415	0.758868
564	H	0.930868	0.583178	0.743303
565	C	0.951006	0.731838	0.691294
566	N	0.977647	0.704432	0.021581
567	C	0.531224	0.726865	0.020111
568	C	0.562855	0.7827	0.687652
569	N	0.536512	0.810193	0.690965
570	C	0.982828	0.788245	0.693188
571	H	0.547486	0.702872	0.017839
572	C	0.964476	0.824427	0.700133
573	O	0.986903	0.870079	0.676108
574	N	0.936032	0.821941	0.736969
575	H	0.924771	0.793392	0.758825
576	H	0.928175	0.850137	0.743192
