data_C288H144N216O72_2018-02-15_10:32:37
#******************************************
#
# CIF file created by Zeo++
# Zeo++ is an open source package to
# analyze microporous materials
#
#*******************************************

_cell_length_a		43.2436   
_cell_length_b		43.2436   
_cell_length_c		30.1204   
_cell_angle_alpha		90   
_cell_angle_beta		90   
_cell_angle_gamma		120   

_symmetry_space_group_name_H-M		'P1'
_symmetry_Int_Tables_number		1
_symmetry_cell_setting		Monoclinic

loop_
_symmetry_equiv_pos_as_xyz
'+x,+y,+z'

loop_
_atom_site_label
_atom_site_type_symbol
_atom_site_fract_x
_atom_site_fract_y
_atom_site_fract_z
1	C	0.129066	0.324574	0.296243
2	N	0.157047	0.358521	0.963166
3	C	0.191494	0.365923	0.962838
4	N	0.197468	0.337947	0.963133
5	C	0.170425	0.303495	0.962871
6	N	0.136478	0.297533	0.96321
7	C	0.22026	0.400988	0.967858
8	C	0.176721	0.274732	0.967951
9	C	0.094005	0.318264	0.96801
10	O	0.14737	0.241781	0.968837
11	O	0.090374	0.347597	0.968784
12	O	0.253224	0.404617	0.968601
13	C	0.366684	0.178964	0.378524
14	N	0.344329	0.143075	0.044828
15	C	0.308266	0.128312	0.045067
16	N	0.294734	0.150666	0.044805
17	C	0.316034	0.186727	0.04516
18	N	0.351922	0.200265	0.044915
19	C	0.285367	0.091302	0.04025
20	C	0.301931	0.209639	0.040418
21	C	0.403701	0.193063	0.04047
22	O	0.325881	0.245056	0.037334
23	O	0.415138	0.169096	0.037232
24	O	0.24996	0.079851	0.037049
25	C	0.220297	0.256264	0.322727
26	C	0.198053	0.220108	0.001786
27	C	0.213246	0.200181	0.017867
28	C	0.250689	0.216253	0.021936
29	N	0.270179	0.251024	0.342717
30	H	0.1969	0.174052	0.026591
31	H	0.170979	0.207768	0.000161
32	N	0.256043	0.269498	0.327813
33	N	0.266211	0.197177	0.035707
34	H	0.250133	0.171769	0.040929
35	N	0.210149	0.279797	0.3083
36	H	0.229822	0.304171	0.304207
37	C	0.238752	0.463052	0.322547
38	C	0.274903	0.476956	0.001628
39	C	0.29483	0.012076	0.017707
40	C	0.278772	0.033462	0.021722
41	N	0.24401	0.018193	0.342465
42	H	0.320946	0.021841	0.026491
43	H	0.28721	0.462187	0.000116
44	N	0.225531	0.485578	0.327577
45	N	0.297839	0.068053	0.035526
46	H	0.32324	0.077373	0.040802
47	N	0.215199	0.429356	0.308179
48	H	0.190829	0.424659	0.304084
49	C	0.031961	0.274689	0.322783
50	C	0.01806	0.296937	0.001874
51	C	0.48294	0.281746	0.017954
52	C	0.461559	0.244302	0.021992
53	N	0.476829	0.22481	0.342747
54	H	0.473168	0.298096	0.026709
55	H	0.03281	0.324013	0.00029
56	N	0.00944	0.238943	0.327842
57	N	0.426963	0.228783	0.035781
58	H	0.417643	0.244864	0.041036
59	N	0.065645	0.284836	0.308364
60	H	0.070345	0.265163	0.304277
61	C	0.129066	0.324574	0.629576
62	N	0.157047	0.358521	0.296498
63	C	0.191494	0.365923	0.29617
64	N	0.197468	0.337947	0.296464
65	C	0.170425	0.303495	0.296204
66	N	0.136478	0.297533	0.296541
67	C	0.22026	0.400988	0.30119
68	C	0.176721	0.274732	0.301283
69	C	0.094005	0.318264	0.301344
70	O	0.14737	0.241781	0.302168
71	O	0.090374	0.347597	0.302116
72	O	0.253224	0.404617	0.301935
73	C	0.366684	0.178964	0.711859
74	N	0.344329	0.143075	0.378162
75	C	0.308266	0.128312	0.378401
76	N	0.294734	0.150666	0.378139
77	C	0.316034	0.186727	0.378494
78	N	0.351922	0.200265	0.378248
79	C	0.285367	0.091302	0.373583
80	C	0.301931	0.209639	0.373753
81	C	0.403701	0.193063	0.373803
82	O	0.325881	0.245056	0.370668
83	O	0.415138	0.169096	0.370566
84	O	0.24996	0.079851	0.370383
85	C	0.220297	0.256264	0.656059
86	C	0.198053	0.220108	0.335121
87	C	0.213246	0.200181	0.3512
88	C	0.250689	0.216253	0.35527
89	N	0.270179	0.251024	0.676052
90	H	0.1969	0.174052	0.359925
91	H	0.170979	0.207768	0.333494
92	N	0.256043	0.269498	0.661146
93	N	0.266211	0.197177	0.369042
94	H	0.250133	0.171769	0.374264
95	N	0.210149	0.279797	0.641634
96	H	0.229822	0.304171	0.63754
97	C	0.238752	0.463052	0.65588
98	C	0.274903	0.476956	0.334962
99	C	0.29483	0.012076	0.351041
100	C	0.278772	0.033462	0.355055
101	N	0.24401	0.018193	0.6758
102	H	0.320946	0.021841	0.359825
103	H	0.28721	0.462187	0.333448
104	N	0.225531	0.485578	0.66091
105	N	0.297839	0.068053	0.368859
106	H	0.32324	0.077373	0.374135
107	N	0.215199	0.429356	0.641514
108	H	0.190829	0.424659	0.637418
109	C	0.031961	0.274689	0.656116
110	C	0.01806	0.296937	0.335208
111	C	0.48294	0.281746	0.351286
112	C	0.461559	0.244302	0.355327
113	N	0.476829	0.22481	0.676082
114	H	0.473168	0.298096	0.360041
115	H	0.03281	0.324013	0.333624
116	N	0.00944	0.238943	0.661175
117	N	0.426963	0.228783	0.369115
118	H	0.417643	0.244864	0.37437
119	N	0.065645	0.284836	0.641697
120	H	0.070345	0.265163	0.63761
121	C	0.129066	0.324574	0.962911
122	N	0.157047	0.358521	0.629831
123	C	0.191494	0.365923	0.629503
124	N	0.197468	0.337947	0.629798
125	C	0.170425	0.303495	0.629539
126	N	0.136478	0.297533	0.629874
127	C	0.22026	0.400988	0.634522
128	C	0.176721	0.274732	0.634615
129	C	0.094005	0.318264	0.634679
130	O	0.14737	0.241781	0.635502
131	O	0.090374	0.347597	0.635449
132	O	0.253224	0.404617	0.635269
133	C	0.366684	0.178964	0.045191
134	N	0.344329	0.143075	0.711497
135	C	0.308266	0.128312	0.711736
136	N	0.294734	0.150666	0.711474
137	C	0.316034	0.186727	0.711829
138	N	0.351922	0.200265	0.711583
139	C	0.285367	0.091302	0.706919
140	C	0.301931	0.209639	0.707085
141	C	0.403701	0.193063	0.707138
142	O	0.325881	0.245056	0.704
143	O	0.415138	0.169096	0.703901
144	O	0.24996	0.079851	0.703718
145	C	0.220297	0.256264	0.989394
146	C	0.198053	0.220108	0.668453
147	C	0.213246	0.200181	0.684535
148	C	0.250689	0.216253	0.688602
149	N	0.270179	0.251024	0.009384
150	H	0.1969	0.174052	0.69326
151	H	0.170979	0.207768	0.666829
152	N	0.256043	0.269498	0.994481
153	N	0.266211	0.197177	0.702377
154	H	0.250133	0.171769	0.707596
155	N	0.210149	0.279797	0.974969
156	H	0.229822	0.304171	0.970875
157	C	0.238752	0.463052	0.989215
158	C	0.274903	0.476956	0.668297
159	C	0.29483	0.012076	0.684376
160	C	0.278772	0.033462	0.68839
161	N	0.24401	0.018193	0.009131
162	H	0.320946	0.021841	0.69316
163	H	0.28721	0.462187	0.666783
164	N	0.225531	0.485578	0.994245
165	N	0.297839	0.068053	0.702194
166	H	0.32324	0.077373	0.70747
167	N	0.215199	0.429356	0.974846
168	H	0.190829	0.424659	0.970753
169	C	0.031961	0.274689	0.989451
170	C	0.01806	0.296937	0.668543
171	C	0.48294	0.281746	0.684621
172	C	0.461559	0.244302	0.688658
173	N	0.476829	0.22481	0.009414
174	H	0.473168	0.298096	0.693376
175	H	0.03281	0.324013	0.666959
176	N	0.00944	0.238943	0.994511
177	N	0.426963	0.228783	0.70245
178	H	0.417643	0.244864	0.707705
179	N	0.065645	0.284836	0.975032
180	H	0.070345	0.265163	0.970945
181	C	0.129066	0.824574	0.296243
182	N	0.157047	0.858521	0.963166
183	C	0.191494	0.865922	0.962838
184	N	0.197468	0.837946	0.963133
185	C	0.170426	0.803495	0.962871
186	N	0.136478	0.797533	0.96321
187	C	0.22026	0.900988	0.967858
188	C	0.176721	0.774732	0.967951
189	C	0.094006	0.818264	0.96801
190	O	0.14737	0.741781	0.968837
191	O	0.090375	0.847599	0.968784
192	O	0.253224	0.904617	0.968601
193	C	0.366684	0.678964	0.378524
194	N	0.344329	0.643076	0.044828
195	C	0.308266	0.628312	0.045067
196	N	0.294734	0.650667	0.044805
197	C	0.316034	0.686726	0.04516
198	N	0.351922	0.700264	0.044915
199	C	0.285369	0.591303	0.04025
200	C	0.301932	0.709639	0.040418
201	C	0.4037	0.693063	0.04047
202	O	0.325881	0.745057	0.037334
203	O	0.415138	0.669097	0.037232
204	O	0.24996	0.57985	0.037049
205	C	0.220297	0.756264	0.322727
206	C	0.198053	0.720107	0.001786
207	C	0.213246	0.700181	0.017867
208	C	0.25069	0.716254	0.021936
209	N	0.27018	0.751025	0.342717
210	H	0.196901	0.674053	0.026591
211	H	0.170979	0.707768	0.000161
212	N	0.256043	0.769498	0.327813
213	N	0.266211	0.697177	0.035707
214	H	0.250133	0.67177	0.040929
215	N	0.21015	0.7798	0.3083
216	H	0.229822	0.804171	0.304207
217	C	0.238752	0.963052	0.322547
218	C	0.274902	0.976956	0.001628
219	C	0.29483	0.512075	0.017707
220	C	0.278772	0.533463	0.021722
221	N	0.244012	0.518195	0.342465
222	H	0.320946	0.521842	0.026491
223	H	0.28721	0.962187	0.000116
224	N	0.225532	0.985581	0.327577
225	N	0.29784	0.568053	0.035526
226	H	0.32324	0.577375	0.040802
227	N	0.215198	0.929356	0.308179
228	H	0.190828	0.924659	0.304084
229	C	0.031961	0.774691	0.322783
230	C	0.018061	0.796937	0.001874
231	C	0.48294	0.781746	0.017954
232	C	0.461558	0.744302	0.021992
233	N	0.476831	0.724812	0.342747
234	H	0.473168	0.798096	0.026709
235	H	0.032811	0.824013	0.00029
236	N	0.009441	0.738942	0.327842
237	N	0.426965	0.728785	0.035781
238	H	0.417643	0.744865	0.041036
239	N	0.065646	0.784836	0.308364
240	H	0.070346	0.765164	0.304277
241	C	0.129066	0.824574	0.629576
242	N	0.157047	0.858521	0.296498
243	C	0.191494	0.865922	0.29617
244	N	0.197468	0.837946	0.296464
245	C	0.170426	0.803495	0.296204
246	N	0.136478	0.797533	0.296541
247	C	0.22026	0.900988	0.30119
248	C	0.176721	0.774732	0.301283
249	C	0.094006	0.818264	0.301344
250	O	0.14737	0.741781	0.302168
251	O	0.090375	0.847599	0.302116
252	O	0.253224	0.904617	0.301935
253	C	0.366684	0.678964	0.711859
254	N	0.344329	0.643076	0.378162
255	C	0.308266	0.628312	0.378401
256	N	0.294734	0.650667	0.378139
257	C	0.316034	0.686726	0.378494
258	N	0.351922	0.700264	0.378248
259	C	0.285369	0.591303	0.373583
260	C	0.301932	0.709639	0.373753
261	C	0.4037	0.693063	0.373803
262	O	0.325881	0.745057	0.370668
263	O	0.415138	0.669097	0.370566
264	O	0.24996	0.57985	0.370383
265	C	0.220297	0.756264	0.656059
266	C	0.198053	0.720107	0.335121
267	C	0.213246	0.700181	0.3512
268	C	0.25069	0.716254	0.35527
269	N	0.27018	0.751025	0.676052
270	H	0.196901	0.674053	0.359925
271	H	0.170979	0.707768	0.333494
272	N	0.256043	0.769498	0.661146
273	N	0.266211	0.697177	0.369042
274	H	0.250133	0.67177	0.374264
275	N	0.21015	0.7798	0.641634
276	H	0.229822	0.804171	0.63754
277	C	0.238752	0.963052	0.65588
278	C	0.274902	0.976956	0.334962
279	C	0.29483	0.512075	0.351041
280	C	0.278772	0.533463	0.355055
281	N	0.244012	0.518195	0.6758
282	H	0.320946	0.521842	0.359825
283	H	0.28721	0.962187	0.333451
284	N	0.225532	0.985581	0.66091
285	N	0.29784	0.568053	0.368859
286	H	0.32324	0.577375	0.374135
287	N	0.215198	0.929356	0.641514
288	H	0.190828	0.924659	0.637418
289	C	0.031961	0.774691	0.656116
290	C	0.018061	0.796937	0.335208
291	C	0.48294	0.781746	0.351286
292	C	0.461558	0.744302	0.355327
293	N	0.476831	0.724812	0.676082
294	H	0.473168	0.798096	0.360041
295	H	0.032811	0.824013	0.333624
296	N	0.009441	0.738942	0.661175
297	N	0.426965	0.728785	0.369115
298	H	0.417643	0.744865	0.37437
299	N	0.065646	0.784836	0.641697
300	H	0.070346	0.765164	0.63761
301	C	0.129066	0.824574	0.962911
302	N	0.157047	0.858521	0.629831
303	C	0.191494	0.865922	0.629503
304	N	0.197468	0.837946	0.629798
305	C	0.170426	0.803495	0.629539
306	N	0.136478	0.797533	0.629874
307	C	0.22026	0.900988	0.634522
308	C	0.176721	0.774732	0.634615
309	C	0.094006	0.818264	0.634679
310	O	0.14737	0.741781	0.635502
311	O	0.090375	0.847599	0.635449
312	O	0.253224	0.904617	0.635269
313	C	0.366684	0.678964	0.045191
314	N	0.344329	0.643076	0.711497
315	C	0.308266	0.628312	0.711736
316	N	0.294734	0.650667	0.711474
317	C	0.316034	0.686726	0.711829
318	N	0.351922	0.700264	0.711583
319	C	0.285369	0.591303	0.706919
320	C	0.301932	0.709639	0.707085
321	C	0.4037	0.693063	0.707138
322	O	0.325881	0.745057	0.704
323	O	0.415138	0.669097	0.703901
324	O	0.24996	0.57985	0.703718
325	C	0.220297	0.756264	0.989394
326	C	0.198053	0.720107	0.668453
327	C	0.213246	0.700181	0.684535
328	C	0.25069	0.716254	0.688602
329	N	0.27018	0.751025	0.009384
330	H	0.196901	0.674053	0.69326
331	H	0.170979	0.707768	0.666829
332	N	0.256043	0.769498	0.994481
333	N	0.266211	0.697177	0.702377
334	H	0.250133	0.67177	0.707596
335	N	0.21015	0.7798	0.974969
336	H	0.229822	0.804171	0.970875
337	C	0.238752	0.963052	0.989215
338	C	0.274902	0.976956	0.668297
339	C	0.29483	0.512075	0.684376
340	C	0.278772	0.533463	0.68839
341	N	0.244012	0.518195	0.009131
342	H	0.320946	0.521842	0.69316
343	H	0.28721	0.962187	0.666783
344	N	0.225532	0.985581	0.994245
345	N	0.29784	0.568053	0.702194
346	H	0.32324	0.577375	0.70747
347	N	0.215198	0.929356	0.974846
348	H	0.190828	0.924659	0.970753
349	C	0.031961	0.774691	0.989451
350	C	0.018061	0.796937	0.668543
351	C	0.48294	0.781746	0.684621
352	C	0.461558	0.744302	0.688658
353	N	0.476831	0.724812	0.009414
354	H	0.473168	0.798096	0.693376
355	H	0.032811	0.824013	0.666959
356	N	0.009441	0.738942	0.994511
357	N	0.426965	0.728785	0.70245
358	H	0.417643	0.744865	0.707705
359	N	0.065646	0.784836	0.975032
360	H	0.070346	0.765164	0.970945
361	C	0.629066	0.324574	0.296243
362	N	0.657047	0.358521	0.963166
363	C	0.691494	0.365923	0.962838
364	N	0.697468	0.337947	0.963133
365	C	0.670426	0.303495	0.962871
366	N	0.636478	0.297533	0.96321
367	C	0.720259	0.400988	0.967858
368	C	0.676722	0.274732	0.967951
369	C	0.594003	0.318264	0.96801
370	O	0.647371	0.241781	0.968837
371	O	0.590373	0.347597	0.968784
372	O	0.753225	0.404617	0.968601
373	C	0.866684	0.178964	0.378524
374	N	0.844329	0.143075	0.044828
375	C	0.808266	0.128312	0.045067
376	N	0.794734	0.150666	0.044805
377	C	0.816035	0.186727	0.04516
378	N	0.851922	0.200265	0.044915
379	C	0.785367	0.091302	0.04025
380	C	0.801931	0.209639	0.040418
381	C	0.903701	0.193063	0.04047
382	O	0.825881	0.245056	0.037334
383	O	0.915138	0.169096	0.037232
384	O	0.749961	0.079851	0.037049
385	C	0.720296	0.256264	0.322727
386	C	0.698053	0.220108	0.001786
387	C	0.713245	0.200181	0.017867
388	C	0.750689	0.216253	0.021936
389	N	0.770178	0.251024	0.342717
390	H	0.696899	0.174052	0.026591
391	H	0.670978	0.207768	0.000161
392	N	0.756043	0.269498	0.327813
393	N	0.766211	0.197177	0.035707
394	H	0.750133	0.171769	0.040929
395	N	0.710149	0.279797	0.3083
396	H	0.729822	0.304171	0.304207
397	C	0.738753	0.463052	0.322547
398	C	0.774902	0.476956	0.001628
399	C	0.79483	0.012076	0.017707
400	C	0.778772	0.033462	0.021722
401	N	0.74401	0.018193	0.342465
402	H	0.820946	0.021841	0.026491
403	H	0.78721	0.462187	0.000116
404	N	0.725531	0.485578	0.327577
405	N	0.797839	0.068053	0.035526
406	H	0.82324	0.077373	0.040802
407	N	0.715199	0.429356	0.308179
408	H	0.690828	0.424659	0.304084
409	C	0.53196	0.274689	0.322783
410	C	0.518061	0.296937	0.001874
411	C	0.98294	0.281746	0.017954
412	C	0.961559	0.244302	0.021992
413	N	0.976829	0.22481	0.342747
414	H	0.973168	0.298096	0.026709
415	H	0.532811	0.324013	0.00029
416	N	0.509441	0.238943	0.327842
417	N	0.926963	0.228783	0.035781
418	H	0.917643	0.244864	0.041036
419	N	0.565646	0.284836	0.308364
420	H	0.570345	0.265163	0.304277
421	C	0.629066	0.324574	0.629576
422	N	0.657047	0.358521	0.296498
423	C	0.691494	0.365923	0.29617
424	N	0.697468	0.337947	0.296464
425	C	0.670426	0.303495	0.296204
426	N	0.636478	0.297533	0.296541
427	C	0.720259	0.400988	0.30119
428	C	0.676722	0.274732	0.301283
429	C	0.594003	0.318264	0.301344
430	O	0.647371	0.241781	0.302168
431	O	0.590373	0.347597	0.302116
432	O	0.753225	0.404617	0.301935
433	C	0.866684	0.178964	0.711859
434	N	0.844329	0.143075	0.378162
435	C	0.808266	0.128312	0.378401
436	N	0.794734	0.150666	0.378139
437	C	0.816035	0.186727	0.378494
438	N	0.851922	0.200265	0.378248
439	C	0.785367	0.091302	0.373583
440	C	0.801931	0.209639	0.373753
441	C	0.903701	0.193063	0.373803
442	O	0.825881	0.245056	0.370668
443	O	0.915138	0.169096	0.370566
444	O	0.749961	0.079851	0.370383
445	C	0.720296	0.256264	0.656059
446	C	0.698053	0.220108	0.335121
447	C	0.713245	0.200181	0.3512
448	C	0.750689	0.216253	0.35527
449	N	0.770178	0.251024	0.676052
450	H	0.696899	0.174052	0.359925
451	H	0.670978	0.207768	0.333494
452	N	0.756043	0.269498	0.661146
453	N	0.766211	0.197177	0.369042
454	H	0.750133	0.171769	0.374264
455	N	0.710149	0.279797	0.641634
456	H	0.729822	0.304171	0.63754
457	C	0.738753	0.463052	0.65588
458	C	0.774902	0.476956	0.334962
459	C	0.79483	0.012076	0.351041
460	C	0.778772	0.033462	0.355055
461	N	0.74401	0.018193	0.6758
462	H	0.820946	0.021841	0.359825
463	H	0.78721	0.462187	0.333448
464	N	0.725531	0.485578	0.66091
465	N	0.797839	0.068053	0.368859
466	H	0.82324	0.077373	0.374135
467	N	0.715199	0.429356	0.641514
468	H	0.690828	0.424659	0.637418
469	C	0.53196	0.274689	0.656116
470	C	0.518061	0.296937	0.335208
471	C	0.98294	0.281746	0.351286
472	C	0.961559	0.244302	0.355327
473	N	0.976829	0.22481	0.676082
474	H	0.973168	0.298096	0.360041
475	H	0.532811	0.324013	0.333624
476	N	0.509441	0.238943	0.661175
477	N	0.926963	0.228783	0.369115
478	H	0.917643	0.244864	0.37437
479	N	0.565646	0.284836	0.641697
480	H	0.570345	0.265163	0.63761
481	C	0.629066	0.324574	0.962911
482	N	0.657047	0.358521	0.629831
483	C	0.691494	0.365923	0.629503
484	N	0.697468	0.337947	0.629798
485	C	0.670426	0.303495	0.629539
486	N	0.636478	0.297533	0.629874
487	C	0.720259	0.400988	0.634522
488	C	0.676722	0.274732	0.634615
489	C	0.594003	0.318264	0.634679
490	O	0.647371	0.241781	0.635502
491	O	0.590373	0.347597	0.635449
492	O	0.753225	0.404617	0.635269
493	C	0.866684	0.178964	0.045191
494	N	0.844329	0.143075	0.711497
495	C	0.808266	0.128312	0.711736
496	N	0.794734	0.150666	0.711474
497	C	0.816035	0.186727	0.711829
498	N	0.851922	0.200265	0.711583
499	C	0.785367	0.091302	0.706919
500	C	0.801931	0.209639	0.707085
501	C	0.903701	0.193063	0.707138
502	O	0.825881	0.245056	0.704
503	O	0.915138	0.169096	0.703901
504	O	0.749961	0.079851	0.703718
505	C	0.720296	0.256264	0.989394
506	C	0.698053	0.220108	0.668453
507	C	0.713245	0.200181	0.684535
508	C	0.750689	0.216253	0.688602
509	N	0.770178	0.251024	0.009384
510	H	0.696899	0.174052	0.69326
511	H	0.670978	0.207768	0.666829
512	N	0.756043	0.269498	0.994481
513	N	0.766211	0.197177	0.702377
514	H	0.750133	0.171769	0.707596
515	N	0.710149	0.279797	0.974969
516	H	0.729822	0.304171	0.970875
517	C	0.738753	0.463052	0.989215
518	C	0.774902	0.476956	0.668297
519	C	0.79483	0.012076	0.684376
520	C	0.778772	0.033462	0.68839
521	N	0.74401	0.018193	0.009131
522	H	0.820946	0.021841	0.69316
523	H	0.78721	0.462187	0.666783
524	N	0.725531	0.485578	0.994245
525	N	0.797839	0.068053	0.702194
526	H	0.82324	0.077373	0.70747
527	N	0.715199	0.429356	0.974846
528	H	0.690828	0.424659	0.970753
529	C	0.53196	0.274689	0.989451
530	C	0.518061	0.296937	0.668543
531	C	0.98294	0.281746	0.684621
532	C	0.961559	0.244302	0.688658
533	N	0.976829	0.22481	0.009414
534	H	0.973168	0.298096	0.693376
535	H	0.532811	0.324013	0.666959
536	N	0.509441	0.238943	0.994511
537	N	0.926963	0.228783	0.70245
538	H	0.917643	0.244864	0.707705
539	N	0.565646	0.284836	0.975032
540	H	0.570345	0.265163	0.970945
541	C	0.629066	0.824574	0.296243
542	N	0.657047	0.858521	0.963166
543	C	0.691494	0.865922	0.962838
544	N	0.697468	0.837946	0.963133
545	C	0.670426	0.803495	0.962871
546	N	0.636478	0.797533	0.96321
547	C	0.720259	0.900988	0.967858
548	C	0.676722	0.774732	0.967951
549	C	0.594005	0.818264	0.96801
550	O	0.647371	0.741781	0.968837
551	O	0.590375	0.847599	0.968784
552	O	0.753225	0.904617	0.968601
553	C	0.866684	0.678964	0.378524
554	N	0.84433	0.643076	0.044828
555	C	0.808266	0.628312	0.045067
556	N	0.794735	0.650667	0.044805
557	C	0.816034	0.686726	0.04516
558	N	0.851922	0.700264	0.044915
559	C	0.785368	0.591303	0.04025
560	C	0.801931	0.709639	0.040418
561	C	0.9037	0.693063	0.04047
562	O	0.825881	0.745057	0.037334
563	O	0.915139	0.669097	0.037232
564	O	0.749961	0.57985	0.037049
565	C	0.720296	0.756264	0.322727
566	C	0.698053	0.720107	0.001786
567	C	0.713247	0.700181	0.017867
568	C	0.750689	0.716254	0.021936
569	N	0.770179	0.751025	0.342717
570	H	0.6969	0.674053	0.026591
571	H	0.670978	0.707768	0.000161
572	N	0.756043	0.769498	0.327813
573	N	0.766211	0.697177	0.035707
574	H	0.750134	0.67177	0.040929
575	N	0.710151	0.7798	0.3083
576	H	0.729822	0.804171	0.304207
577	C	0.738752	0.963052	0.322547
578	C	0.774902	0.976956	0.001628
579	C	0.794829	0.512075	0.017707
580	C	0.778773	0.533463	0.021722
581	N	0.744011	0.518195	0.342465
582	H	0.820946	0.521842	0.026491
583	H	0.78721	0.962187	0.000116
584	N	0.725532	0.985581	0.327577
585	N	0.797839	0.568053	0.035526
586	H	0.823241	0.577375	0.040802
587	N	0.715198	0.929356	0.308179
588	H	0.690829	0.924659	0.304084
589	C	0.531962	0.774691	0.322783
590	C	0.51806	0.796937	0.001874
591	C	0.98294	0.781746	0.017954
592	C	0.961558	0.744302	0.021992
593	N	0.97683	0.724812	0.342747
594	H	0.973168	0.798096	0.026709
595	H	0.53281	0.824013	0.00029
596	N	0.50944	0.738942	0.327842
597	N	0.926964	0.728785	0.035781
598	H	0.917644	0.744865	0.041036
599	N	0.565645	0.784836	0.308364
600	H	0.570346	0.765164	0.304277
601	C	0.629066	0.824574	0.629576
602	N	0.657047	0.858521	0.296498
603	C	0.691494	0.865922	0.29617
604	N	0.697468	0.837946	0.296464
605	C	0.670426	0.803495	0.296204
606	N	0.636478	0.797533	0.296541
607	C	0.720259	0.900988	0.30119
608	C	0.676722	0.774732	0.301283
609	C	0.594005	0.818264	0.301344
610	O	0.647371	0.741781	0.302168
611	O	0.590375	0.847599	0.302116
612	O	0.753225	0.904617	0.301935
613	C	0.866684	0.678964	0.711859
614	N	0.84433	0.643076	0.378162
615	C	0.808266	0.628312	0.378401
616	N	0.794735	0.650667	0.378139
617	C	0.816034	0.686726	0.378494
618	N	0.851922	0.700264	0.378248
619	C	0.785368	0.591303	0.373583
620	C	0.801931	0.709639	0.373753
621	C	0.9037	0.693063	0.373803
622	O	0.825881	0.745057	0.370668
623	O	0.915139	0.669097	0.370566
624	O	0.749961	0.57985	0.370383
625	C	0.720296	0.756264	0.656059
626	C	0.698053	0.720107	0.335121
627	C	0.713247	0.700181	0.3512
628	C	0.750689	0.716254	0.35527
629	N	0.770179	0.751025	0.676052
630	H	0.6969	0.674053	0.359925
631	H	0.670978	0.707768	0.333494
632	N	0.756043	0.769498	0.661146
633	N	0.766211	0.697177	0.369042
634	H	0.750134	0.67177	0.374264
635	N	0.710151	0.7798	0.641634
636	H	0.729822	0.804171	0.63754
637	C	0.738752	0.963052	0.65588
638	C	0.774902	0.976956	0.334962
639	C	0.794829	0.512075	0.351041
640	C	0.778773	0.533463	0.355055
641	N	0.744011	0.518195	0.6758
642	H	0.820946	0.521842	0.359825
643	H	0.78721	0.962187	0.333451
644	N	0.725532	0.985581	0.66091
645	N	0.797839	0.568053	0.368859
646	H	0.823241	0.577375	0.374135
647	N	0.715198	0.929356	0.641514
648	H	0.690829	0.924659	0.637418
649	C	0.531962	0.774691	0.656116
650	C	0.51806	0.796937	0.335208
651	C	0.98294	0.781746	0.351286
652	C	0.961558	0.744302	0.355327
653	N	0.97683	0.724812	0.676082
654	H	0.973168	0.798096	0.360041
655	H	0.53281	0.824013	0.333624
656	N	0.50944	0.738942	0.661175
657	N	0.926964	0.728785	0.369115
658	H	0.917644	0.744865	0.37437
659	N	0.565645	0.784836	0.641697
660	H	0.570346	0.765164	0.63761
661	C	0.629066	0.824574	0.962911
662	N	0.657047	0.858521	0.629831
663	C	0.691494	0.865922	0.629503
664	N	0.697468	0.837946	0.629798
665	C	0.670426	0.803495	0.629539
666	N	0.636478	0.797533	0.629874
667	C	0.720259	0.900988	0.634522
668	C	0.676722	0.774732	0.634615
669	C	0.594005	0.818264	0.634679
670	O	0.647371	0.741781	0.635502
671	O	0.590375	0.847599	0.635449
672	O	0.753225	0.904617	0.635269
673	C	0.866684	0.678964	0.045191
674	N	0.84433	0.643076	0.711497
675	C	0.808266	0.628312	0.711736
676	N	0.794735	0.650667	0.711474
677	C	0.816034	0.686726	0.711829
678	N	0.851922	0.700264	0.711583
679	C	0.785368	0.591303	0.706919
680	C	0.801931	0.709639	0.707085
681	C	0.9037	0.693063	0.707138
682	O	0.825881	0.745057	0.704
683	O	0.915139	0.669097	0.703901
684	O	0.749961	0.57985	0.703718
685	C	0.720296	0.756264	0.989394
686	C	0.698053	0.720107	0.668453
687	C	0.713247	0.700181	0.684535
688	C	0.750689	0.716254	0.688602
689	N	0.770179	0.751025	0.009384
690	H	0.6969	0.674053	0.69326
691	H	0.670978	0.707768	0.666829
692	N	0.756043	0.769498	0.994481
693	N	0.766211	0.697177	0.702377
694	H	0.750134	0.67177	0.707596
695	N	0.710151	0.7798	0.974969
696	H	0.729822	0.804171	0.970875
697	C	0.738752	0.963052	0.989215
698	C	0.774902	0.976956	0.668297
699	C	0.794829	0.512075	0.684376
700	C	0.778773	0.533463	0.68839
701	N	0.744011	0.518195	0.009131
702	H	0.820946	0.521842	0.69316
703	H	0.78721	0.962187	0.666783
704	N	0.725532	0.985581	0.994245
705	N	0.797839	0.568053	0.702194
706	H	0.823241	0.577375	0.70747
707	N	0.715198	0.929356	0.974846
708	H	0.690829	0.924659	0.970753
709	C	0.531962	0.774691	0.989451
710	C	0.51806	0.796937	0.668543
711	C	0.98294	0.781746	0.684621
712	C	0.961558	0.744302	0.688658
713	N	0.97683	0.724812	0.009414
714	H	0.973168	0.798096	0.693376
715	H	0.53281	0.824013	0.666959
716	N	0.50944	0.738942	0.994511
717	N	0.926964	0.728785	0.70245
718	H	0.917644	0.744865	0.707705
719	N	0.565645	0.784836	0.975032
720	H	0.570346	0.765164	0.970945
