data_C288H72N144O144_2018-02-15_10:38:12
#******************************************
#
# CIF file created by Zeo++
# Zeo++ is an open source package to
# analyze microporous materials
#
#*******************************************

_cell_length_a		29.1713   
_cell_length_b		29.1713   
_cell_length_c		29.786   
_cell_angle_alpha		90   
_cell_angle_beta		90   
_cell_angle_gamma		120   

_symmetry_space_group_name_H-M		'P1'
_symmetry_Int_Tables_number		1
_symmetry_cell_setting		Monoclinic

loop_
_symmetry_equiv_pos_as_xyz
'+x,+y,+z'

loop_
_atom_site_label
_atom_site_type_symbol
_atom_site_fract_x
_atom_site_fract_y
_atom_site_fract_z
1	N	0.035923	0.304126	0.009211
2	C	0.027174	0.220591	0.329068
3	C	0.043032	0.185188	0.316454
4	O	0.042285	0.178262	0.275961
5	O	0.029329	0.144869	0.339155
6	H	0.02633	0.143525	0.368807
7	N	0.035923	0.304126	0.342546
8	C	0.027174	0.220591	0.662401
9	C	0.043032	0.185188	0.649787
10	O	0.042285	0.178262	0.609295
11	O	0.029329	0.144869	0.672489
12	H	0.02633	0.143525	0.702141
13	N	0.035923	0.304126	0.67588
14	C	0.027174	0.220591	0.995735
15	C	0.043032	0.185188	0.983121
16	O	0.042285	0.178262	0.942629
17	O	0.029329	0.144869	0.005822
18	H	0.02633	0.143525	0.035472
19	N	0.035924	0.804126	0.009211
20	C	0.027176	0.720593	0.329068
21	C	0.043034	0.685189	0.316454
22	O	0.042285	0.678262	0.275961
23	O	0.02933	0.64487	0.339155
24	H	0.02633	0.643524	0.368807
25	N	0.035924	0.804126	0.342546
26	C	0.027176	0.720593	0.662401
27	C	0.043034	0.685189	0.649787
28	O	0.042285	0.678262	0.609295
29	O	0.02933	0.64487	0.672489
30	H	0.02633	0.643524	0.702141
31	N	0.035924	0.804126	0.67588
32	C	0.027176	0.720593	0.995735
33	C	0.043034	0.685189	0.983121
34	O	0.042285	0.678262	0.942629
35	O	0.02933	0.64487	0.005822
36	H	0.02633	0.643524	0.035472
37	C	0.060513	0.276343	0.332849
38	C	0.060513	0.276343	0.666184
39	C	0.060513	0.276343	0.999518
40	C	0.060513	0.776342	0.332849
41	C	0.060513	0.776342	0.666184
42	C	0.060513	0.776342	0.999518
43	C	0.197427	0.38904	0.000871
44	N	0.143579	0.359404	8.6e-05
45	C	0.116264	0.305556	0.997131
46	N	0.14499	0.280888	0.995137
47	C	0.198551	0.307104	0.996601
48	N	0.223864	0.361229	4.5e-05
49	C	0.31279	0.115117	0.008095
50	N	0.366593	0.144701	0.009611
51	C	0.393903	0.198522	0.01276
52	N	0.365191	0.223232	0.01426
53	C	0.311648	0.197062	0.01219
54	N	0.286368	0.142952	0.00856
55	C	0.225024	0.277623	0.331494
56	N	0.276122	0.303743	0.01186
57	C	0.30738	0.281923	0.017759
58	C	0.285209	0.226564	0.010211
59	N	0.234105	0.20044	0.329825
60	C	0.202889	0.222292	0.3238
61	C	0.153911	0.18955	0.304857
62	C	0.35633	0.31479	0.036778
63	O	0.127954	0.144812	0.320152
64	O	0.147667	0.191927	0.264008
65	H	0.165578	0.220599	0.247213
66	O	0.382509	0.358791	0.020184
67	O	0.361601	0.31336	0.077869
68	H	0.343525	0.285005	0.094987
69	C	0.224099	0.445452	0.335969
70	N	0.27797	0.472452	0.004801
71	C	0.309766	0.026109	0.0065
72	C	0.286149	0.058744	0.006028
73	N	0.232296	0.031731	0.337101
74	C	0.200368	0.477982	0.33547
75	C	0.146506	0.458974	0.331711
76	C	0.36329	0.043513	0.009053
77	O	0.127891	0.446422	0.293981
78	O	0.12339	0.475389	0.355955
79	H	0.133625	0.487898	0.383465
80	O	0.384177	0.057977	0.04584
81	O	0.393058	0.064311	0.976635
82	H	0.382553	0.059948	0.948269
83	C	0.48303	0.28341	0.014694
84	C	0.449681	0.227666	0.010818
85	N	0.474272	0.199869	0.334504
86	C	0.467247	0.318681	0.027706
87	O	0.465761	0.323877	0.06829
88	O	0.482491	0.360507	0.006798
89	H	0.487684	0.363833	0.977384
90	C	0.197427	0.38904	0.334202
91	N	0.143579	0.359404	0.333416
92	C	0.116264	0.305556	0.330462
93	N	0.14499	0.280888	0.328469
94	C	0.198551	0.307104	0.329933
95	N	0.223864	0.361229	0.333377
96	C	0.31279	0.115117	0.341428
97	N	0.366593	0.144701	0.342946
98	C	0.393903	0.198522	0.346095
99	N	0.365191	0.223232	0.347592
100	C	0.311648	0.197062	0.345524
101	N	0.286368	0.142952	0.341895
102	C	0.225024	0.277623	0.664828
103	N	0.276122	0.303743	0.345195
104	C	0.30738	0.281923	0.351094
105	C	0.285209	0.226564	0.343543
106	N	0.234105	0.20044	0.663159
107	C	0.202889	0.222292	0.657133
108	C	0.153911	0.18955	0.638191
109	C	0.35633	0.31479	0.370113
110	O	0.127954	0.144812	0.653487
111	O	0.147667	0.191927	0.597343
112	H	0.165578	0.220599	0.580547
113	O	0.382509	0.358791	0.353518
114	O	0.361601	0.31336	0.411203
115	H	0.343525	0.285005	0.428321
116	C	0.224099	0.445452	0.669303
117	N	0.27797	0.472452	0.338135
118	C	0.309766	0.026109	0.339834
119	C	0.286149	0.058744	0.339364
120	N	0.232296	0.031731	0.670435
121	C	0.200368	0.477982	0.668803
122	C	0.146506	0.458974	0.665046
123	C	0.36329	0.043513	0.342388
124	O	0.127891	0.446422	0.627314
125	O	0.12339	0.475389	0.689289
126	H	0.133625	0.487898	0.716799
127	O	0.384177	0.057977	0.379174
128	O	0.393058	0.064311	0.309966
129	H	0.382553	0.059948	0.281602
130	C	0.48303	0.28341	0.348029
131	C	0.449681	0.227666	0.344151
132	N	0.474272	0.199869	0.667836
133	C	0.467247	0.318681	0.361038
134	O	0.465761	0.323877	0.401624
135	O	0.482491	0.360507	0.340132
136	H	0.487684	0.363833	0.310715
137	C	0.197427	0.38904	0.667537
138	N	0.143579	0.359404	0.666752
139	C	0.116264	0.305556	0.663797
140	N	0.14499	0.280888	0.661803
141	C	0.198551	0.307104	0.663267
142	N	0.223864	0.361229	0.666711
143	C	0.31279	0.115117	0.674762
144	N	0.366593	0.144701	0.67628
145	C	0.393903	0.198522	0.679429
146	N	0.365191	0.223232	0.680926
147	C	0.311648	0.197062	0.678858
148	N	0.286368	0.142952	0.675229
149	C	0.225024	0.277623	0.998162
150	N	0.276122	0.303743	0.678529
151	C	0.30738	0.281923	0.684428
152	C	0.285209	0.226564	0.676877
153	N	0.234105	0.20044	0.996493
154	C	0.202889	0.222292	0.990467
155	C	0.153911	0.18955	0.971525
156	C	0.35633	0.31479	0.703447
157	O	0.127954	0.144812	0.986821
158	O	0.147667	0.191927	0.930677
159	H	0.165578	0.220599	0.913881
160	O	0.382509	0.358791	0.686852
161	O	0.361601	0.31336	0.744536
162	H	0.343525	0.285005	0.761655
163	C	0.224099	0.445452	0.002637
164	N	0.27797	0.472452	0.671469
165	C	0.309766	0.026109	0.673167
166	C	0.286149	0.058744	0.672697
167	N	0.232296	0.031731	0.003765
168	C	0.200368	0.477982	0.002137
169	C	0.146506	0.458974	0.99838
170	C	0.36329	0.043513	0.675722
171	O	0.127891	0.446422	0.960648
172	O	0.12339	0.475389	0.022623
173	H	0.133625	0.487898	0.050131
174	O	0.384177	0.057977	0.712508
175	O	0.393058	0.064311	0.643301
176	H	0.382553	0.059948	0.614936
177	C	0.48303	0.28341	0.681363
178	C	0.449681	0.227666	0.677485
179	N	0.474272	0.199869	0.00117
180	C	0.467247	0.318681	0.694372
181	O	0.465761	0.323877	0.734958
182	O	0.482491	0.360507	0.673466
183	H	0.487684	0.363833	0.64405
184	C	0.197428	0.88904	0.000871
185	N	0.14358	0.859404	8.6e-05
186	C	0.116266	0.805559	0.997131
187	N	0.144992	0.78089	0.995137
188	C	0.198553	0.807106	0.996601
189	N	0.223865	0.861229	4.5e-05
190	C	0.312791	0.615119	0.008095
191	N	0.366595	0.644703	0.009611
192	C	0.393903	0.698521	0.01276
193	N	0.365192	0.723233	0.01426
194	C	0.311648	0.69706	0.01219
195	N	0.28637	0.642954	0.00856
196	C	0.225026	0.777625	0.331494
197	N	0.276123	0.803742	0.01186
198	C	0.307381	0.781923	0.017759
199	C	0.285209	0.726562	0.010211
200	N	0.234106	0.700441	0.329824
201	C	0.202889	0.722291	0.3238
202	C	0.153912	0.689551	0.304857
203	C	0.35633	0.814789	0.036778
204	O	0.127956	0.644814	0.320152
205	O	0.147668	0.691926	0.264008
206	H	0.16558	0.720601	0.247213
207	O	0.38251	0.85879	0.020184
208	O	0.361602	0.813361	0.077869
209	H	0.343527	0.785007	0.094987
210	C	0.224099	0.94545	0.335969
211	N	0.277969	0.97245	0.004801
212	C	0.309768	0.526111	0.0065
213	C	0.28615	0.558744	0.006028
214	N	0.232298	0.531732	0.337101
215	C	0.200368	0.97798	0.33547
216	C	0.146506	0.958972	0.331711
217	C	0.363291	0.543512	0.009053
218	O	0.127889	0.94642	0.293981
219	O	0.123391	0.975391	0.355955
220	H	0.133626	0.987896	0.383465
221	O	0.384176	0.557976	0.04584
222	O	0.393059	0.564313	0.976635
223	H	0.382554	0.559947	0.948269
224	C	0.483032	0.783412	0.014694
225	C	0.449682	0.727666	0.010818
226	N	0.474275	0.699871	0.334504
227	C	0.467247	0.818681	0.027706
228	O	0.465762	0.823878	0.06829
229	O	0.482493	0.860508	0.006797
230	H	0.487685	0.863833	0.977384
231	C	0.197428	0.88904	0.334202
232	N	0.14358	0.859404	0.333416
233	C	0.116266	0.805559	0.330462
234	N	0.144992	0.78089	0.328469
235	C	0.198553	0.807106	0.329933
236	N	0.223865	0.861229	0.333377
237	C	0.312791	0.615119	0.341428
238	N	0.366595	0.644703	0.342946
239	C	0.393903	0.698521	0.346095
240	N	0.365192	0.723233	0.347592
241	C	0.311648	0.69706	0.345524
242	N	0.28637	0.642954	0.341895
243	C	0.225026	0.777625	0.664828
244	N	0.276123	0.803742	0.345195
245	C	0.307381	0.781923	0.351094
246	C	0.285209	0.726562	0.343543
247	N	0.234106	0.700441	0.663159
248	C	0.202889	0.722291	0.657133
249	C	0.153912	0.689551	0.638191
250	C	0.35633	0.814789	0.370113
251	O	0.127956	0.644814	0.653487
252	O	0.147668	0.691926	0.597343
253	H	0.16558	0.720601	0.580547
254	O	0.38251	0.85879	0.353518
255	O	0.361602	0.813361	0.411203
256	H	0.343527	0.785007	0.428321
257	C	0.224099	0.94545	0.669303
258	N	0.277969	0.97245	0.338135
259	C	0.309768	0.526111	0.339834
260	C	0.28615	0.558744	0.339364
261	N	0.232298	0.531732	0.670435
262	C	0.200368	0.97798	0.668803
263	C	0.146506	0.958972	0.665046
264	C	0.363291	0.543512	0.342388
265	O	0.127889	0.94642	0.627314
266	O	0.123391	0.975391	0.689289
267	H	0.133626	0.987896	0.716799
268	O	0.384176	0.557976	0.379174
269	O	0.393059	0.564313	0.309966
270	H	0.382554	0.559947	0.281602
271	C	0.483032	0.783412	0.348029
272	C	0.449682	0.727666	0.344151
273	N	0.474275	0.699871	0.667836
274	C	0.467247	0.818681	0.361038
275	O	0.465762	0.823878	0.401624
276	O	0.482493	0.860508	0.340132
277	H	0.487685	0.863833	0.310715
278	C	0.197428	0.88904	0.667537
279	N	0.14358	0.859404	0.666752
280	C	0.116266	0.805559	0.663797
281	N	0.144992	0.78089	0.661803
282	C	0.198553	0.807106	0.663267
283	N	0.223865	0.861229	0.666711
284	C	0.312791	0.615119	0.674762
285	N	0.366595	0.644703	0.67628
286	C	0.393903	0.698521	0.679429
287	N	0.365192	0.723233	0.680926
288	C	0.311648	0.69706	0.678858
289	N	0.28637	0.642954	0.675229
290	C	0.225026	0.777625	0.998162
291	N	0.276123	0.803742	0.678529
292	C	0.307381	0.781923	0.684428
293	C	0.285209	0.726562	0.676877
294	N	0.234106	0.700441	0.996493
295	C	0.202889	0.722291	0.990467
296	C	0.153912	0.689551	0.971525
297	C	0.35633	0.814789	0.703447
298	O	0.127956	0.644814	0.986821
299	O	0.147668	0.691926	0.930677
300	H	0.16558	0.720601	0.913881
301	O	0.38251	0.85879	0.686852
302	O	0.361602	0.813361	0.744536
303	H	0.343527	0.785007	0.761655
304	C	0.224099	0.94545	0.002637
305	N	0.277969	0.97245	0.671469
306	C	0.309768	0.526111	0.673167
307	C	0.28615	0.558744	0.672697
308	N	0.232298	0.531732	0.003765
309	C	0.200368	0.97798	0.002137
310	C	0.146506	0.958972	0.99838
311	C	0.363291	0.543512	0.675722
312	O	0.127889	0.94642	0.960648
313	O	0.123391	0.975391	0.022623
314	H	0.133626	0.987896	0.050131
315	O	0.384176	0.557976	0.712508
316	O	0.393059	0.564313	0.643301
317	H	0.382554	0.559947	0.614936
318	C	0.483032	0.783412	0.681363
319	C	0.449682	0.727666	0.677485
320	N	0.474275	0.699871	0.00117
321	C	0.467247	0.818681	0.694372
322	O	0.465762	0.823878	0.734958
323	O	0.482493	0.860508	0.673466
324	H	0.487685	0.863833	0.64405
325	C	0.697426	0.38904	0.000871
326	N	0.64358	0.359404	8.6e-05
327	C	0.616265	0.305556	0.997131
328	N	0.644992	0.280888	0.995137
329	C	0.698551	0.307104	0.996601
330	N	0.723865	0.361229	4.5e-05
331	C	0.812791	0.115117	0.008095
332	N	0.866594	0.144701	0.009611
333	C	0.893902	0.198522	0.01276
334	N	0.865193	0.223232	0.01426
335	C	0.81165	0.197062	0.01219
336	N	0.786367	0.142952	0.00856
337	C	0.725025	0.277623	0.331494
338	N	0.776122	0.303743	0.01186
339	C	0.807381	0.281923	0.017759
340	C	0.78521	0.226564	0.010211
341	N	0.734107	0.20044	0.329825
342	C	0.702889	0.222292	0.3238
343	C	0.653911	0.18955	0.304857
344	C	0.856329	0.31479	0.036778
345	O	0.627956	0.144812	0.320152
346	O	0.647667	0.191927	0.264008
347	H	0.665578	0.220599	0.247213
348	O	0.882508	0.358791	0.020184
349	O	0.8616	0.31336	0.077869
350	H	0.843524	0.285005	0.094987
351	C	0.7241	0.445452	0.335969
352	N	0.777968	0.472452	0.004801
353	C	0.809766	0.026109	0.0065
354	C	0.78615	0.058744	0.006028
355	N	0.732296	0.031731	0.337101
356	C	0.70037	0.477982	0.33547
357	C	0.646507	0.458974	0.331711
358	C	0.863289	0.043513	0.009053
359	O	0.62789	0.446422	0.293981
360	O	0.62339	0.475389	0.355955
361	H	0.633624	0.487898	0.383465
362	O	0.884175	0.057977	0.04584
363	O	0.893057	0.064311	0.976635
364	H	0.882552	0.059948	0.948269
365	C	0.560512	0.276343	0.332849
366	N	0.535924	0.304126	0.009211
367	C	0.983029	0.28341	0.014694
368	C	0.949682	0.227666	0.010818
369	N	0.974274	0.199869	0.334504
370	C	0.527175	0.220591	0.329068
371	C	0.543033	0.185188	0.316454
372	C	0.967248	0.318681	0.027706
373	O	0.542286	0.178262	0.275961
374	O	0.529329	0.144869	0.339155
375	H	0.526329	0.143525	0.368807
376	O	0.96576	0.323877	0.06829
377	O	0.982491	0.360507	0.006798
378	H	0.987685	0.363833	0.977384
379	C	0.697426	0.38904	0.334202
380	N	0.64358	0.359404	0.333416
381	C	0.616265	0.305556	0.330462
382	N	0.644992	0.280888	0.328469
383	C	0.698551	0.307104	0.329933
384	N	0.723865	0.361229	0.333377
385	C	0.812791	0.115117	0.341428
386	N	0.866594	0.144701	0.342946
387	C	0.893902	0.198522	0.346095
388	N	0.865193	0.223232	0.347592
389	C	0.81165	0.197062	0.345524
390	N	0.786367	0.142952	0.341895
391	C	0.725025	0.277623	0.664828
392	N	0.776122	0.303743	0.345195
393	C	0.807381	0.281923	0.351094
394	C	0.78521	0.226564	0.343543
395	N	0.734107	0.20044	0.663159
396	C	0.702889	0.222292	0.657133
397	C	0.653911	0.18955	0.638191
398	C	0.856329	0.31479	0.370113
399	O	0.627956	0.144812	0.653487
400	O	0.647667	0.191927	0.597343
401	H	0.665578	0.220599	0.580547
402	O	0.882508	0.358791	0.353518
403	O	0.8616	0.31336	0.411203
404	H	0.843524	0.285005	0.428321
405	C	0.7241	0.445452	0.669303
406	N	0.777968	0.472452	0.338135
407	C	0.809766	0.026109	0.339834
408	C	0.78615	0.058744	0.339364
409	N	0.732296	0.031731	0.670435
410	C	0.70037	0.477982	0.668803
411	C	0.646507	0.458974	0.665046
412	C	0.863289	0.043513	0.342388
413	O	0.62789	0.446422	0.627314
414	O	0.62339	0.475389	0.689289
415	H	0.633624	0.487898	0.716799
416	O	0.884175	0.057977	0.379174
417	O	0.893057	0.064311	0.309966
418	H	0.882552	0.059948	0.281602
419	C	0.560512	0.276343	0.666184
420	N	0.535924	0.304126	0.342546
421	C	0.983029	0.28341	0.348029
422	C	0.949682	0.227666	0.344151
423	N	0.974274	0.199869	0.667836
424	C	0.527175	0.220591	0.662401
425	C	0.543033	0.185188	0.649787
426	C	0.967248	0.318681	0.361038
427	O	0.542286	0.178262	0.609295
428	O	0.529329	0.144869	0.672489
429	H	0.526329	0.143525	0.702141
430	O	0.96576	0.323877	0.401624
431	O	0.982491	0.360507	0.340132
432	H	0.987685	0.363833	0.310715
433	C	0.697426	0.38904	0.667537
434	N	0.64358	0.359404	0.666752
435	C	0.616265	0.305556	0.663797
436	N	0.644992	0.280888	0.661803
437	C	0.698551	0.307104	0.663267
438	N	0.723865	0.361229	0.666711
439	C	0.812791	0.115117	0.674762
440	N	0.866594	0.144701	0.67628
441	C	0.893902	0.198522	0.679429
442	N	0.865193	0.223232	0.680926
443	C	0.81165	0.197062	0.678858
444	N	0.786367	0.142952	0.675229
445	C	0.725025	0.277623	0.998162
446	N	0.776122	0.303743	0.678529
447	C	0.807381	0.281923	0.684428
448	C	0.78521	0.226564	0.676877
449	N	0.734107	0.20044	0.996493
450	C	0.702889	0.222292	0.990467
451	C	0.653911	0.18955	0.971525
452	C	0.856329	0.31479	0.703447
453	O	0.627956	0.144812	0.986821
454	O	0.647667	0.191927	0.930677
455	H	0.665578	0.220599	0.913881
456	O	0.882508	0.358791	0.686852
457	O	0.8616	0.31336	0.744536
458	H	0.843524	0.285005	0.761655
459	C	0.7241	0.445452	0.002637
460	N	0.777968	0.472452	0.671469
461	C	0.809766	0.026109	0.673167
462	C	0.78615	0.058744	0.672697
463	N	0.732296	0.031731	0.003765
464	C	0.70037	0.477982	0.002137
465	C	0.646507	0.458974	0.99838
466	C	0.863289	0.043513	0.675722
467	O	0.62789	0.446422	0.960648
468	O	0.62339	0.475389	0.022623
469	H	0.633624	0.487898	0.050131
470	O	0.884175	0.057977	0.712508
471	O	0.893057	0.064311	0.643301
472	H	0.882552	0.059948	0.614936
473	C	0.560512	0.276343	0.999518
474	N	0.535924	0.304126	0.67588
475	C	0.983029	0.28341	0.681363
476	C	0.949682	0.227666	0.677485
477	N	0.974274	0.199869	0.00117
478	C	0.527175	0.220591	0.995735
479	C	0.543033	0.185188	0.983121
480	C	0.967248	0.318681	0.694372
481	O	0.542286	0.178262	0.942629
482	O	0.529329	0.144869	0.005822
483	H	0.526329	0.143525	0.035472
484	O	0.96576	0.323877	0.734958
485	O	0.982491	0.360507	0.673466
486	H	0.987685	0.363833	0.64405
487	C	0.697428	0.88904	0.000871
488	N	0.64358	0.859404	8.6e-05
489	C	0.616266	0.805559	0.997131
490	N	0.644992	0.78089	0.995137
491	C	0.698553	0.807106	0.996601
492	N	0.723865	0.861229	4.5e-05
493	C	0.81279	0.615119	0.008095
494	N	0.866597	0.644703	0.009611
495	C	0.893903	0.698521	0.01276
496	N	0.865191	0.723233	0.01426
497	C	0.811648	0.69706	0.01219
498	N	0.78637	0.642954	0.00856
499	C	0.725026	0.777625	0.331494
500	N	0.776124	0.803742	0.01186
501	C	0.807383	0.781923	0.017759
502	C	0.785211	0.726562	0.010211
503	N	0.734106	0.700441	0.329824
504	C	0.702889	0.722291	0.3238
505	C	0.653912	0.689551	0.304857
506	C	0.856331	0.814789	0.036778
507	O	0.627956	0.644814	0.320152
508	O	0.647668	0.691926	0.264008
509	H	0.66558	0.720601	0.247213
510	O	0.88251	0.85879	0.020184
511	O	0.861601	0.813361	0.077869
512	H	0.843527	0.785007	0.094987
513	C	0.724099	0.94545	0.335969
514	N	0.77797	0.97245	0.004801
515	C	0.809769	0.526111	0.0065
516	C	0.786152	0.558744	0.006028
517	N	0.732298	0.531732	0.337101
518	C	0.700368	0.97798	0.33547
519	C	0.646506	0.958972	0.331711
520	C	0.863291	0.543512	0.009053
521	O	0.627891	0.94642	0.293981
522	O	0.623392	0.975391	0.355955
523	H	0.633625	0.987896	0.383465
524	O	0.884176	0.557976	0.04584
525	O	0.893059	0.564313	0.976635
526	H	0.882553	0.559947	0.948269
527	C	0.560514	0.776342	0.332849
528	N	0.535924	0.804126	0.009211
529	C	0.983032	0.783412	0.014694
530	C	0.949681	0.727666	0.010818
531	N	0.974276	0.699871	0.334504
532	C	0.527176	0.720593	0.329068
533	C	0.543034	0.685189	0.316454
534	C	0.967246	0.818681	0.027706
535	O	0.542286	0.678262	0.275961
536	O	0.52933	0.64487	0.339155
537	H	0.52633	0.643524	0.368807
538	O	0.965762	0.823878	0.06829
539	O	0.982494	0.860508	0.006797
540	H	0.987684	0.863833	0.977384
541	C	0.697428	0.88904	0.334202
542	N	0.64358	0.859404	0.333416
543	C	0.616266	0.805559	0.330462
544	N	0.644992	0.78089	0.328469
545	C	0.698553	0.807106	0.329933
546	N	0.723865	0.861229	0.333377
547	C	0.81279	0.615119	0.341428
548	N	0.866597	0.644703	0.342946
549	C	0.893903	0.698521	0.346095
550	N	0.865191	0.723233	0.347592
551	C	0.811648	0.69706	0.345524
552	N	0.78637	0.642954	0.341895
553	C	0.725026	0.777625	0.664828
554	N	0.776124	0.803742	0.345195
555	C	0.807383	0.781923	0.351094
556	C	0.785211	0.726562	0.343543
557	N	0.734106	0.700441	0.663159
558	C	0.702889	0.722291	0.657133
559	C	0.653912	0.689551	0.638191
560	C	0.856331	0.814789	0.370113
561	O	0.627956	0.644814	0.653487
562	O	0.647668	0.691926	0.597343
563	H	0.66558	0.720601	0.580547
564	O	0.88251	0.85879	0.353518
565	O	0.861601	0.813361	0.411203
566	H	0.843527	0.785007	0.428321
567	C	0.724099	0.94545	0.669303
568	N	0.77797	0.97245	0.338135
569	C	0.809769	0.526111	0.339834
570	C	0.786152	0.558744	0.339364
571	N	0.732298	0.531732	0.670435
572	C	0.700368	0.97798	0.668803
573	C	0.646506	0.958972	0.665046
574	C	0.863291	0.543512	0.342388
575	O	0.627891	0.94642	0.627314
576	O	0.623392	0.975391	0.689289
577	H	0.633625	0.987896	0.716799
578	O	0.884176	0.557976	0.379174
579	O	0.893059	0.564313	0.309966
580	H	0.882553	0.559947	0.281602
581	C	0.560514	0.776342	0.666184
582	N	0.535924	0.804126	0.342546
583	C	0.983032	0.783412	0.348029
584	C	0.949681	0.727666	0.344151
585	N	0.974276	0.699871	0.667836
586	C	0.527176	0.720593	0.662401
587	C	0.543034	0.685189	0.649787
588	C	0.967246	0.818681	0.361038
589	O	0.542286	0.678262	0.609295
590	O	0.52933	0.64487	0.672489
591	H	0.52633	0.643524	0.702141
592	O	0.965762	0.823878	0.401624
593	O	0.982494	0.860508	0.340132
594	H	0.987684	0.863833	0.310715
595	C	0.697428	0.88904	0.667537
596	N	0.64358	0.859404	0.666752
597	C	0.616266	0.805559	0.663797
598	N	0.644992	0.78089	0.661803
599	C	0.698553	0.807106	0.663267
600	N	0.723865	0.861229	0.666711
601	C	0.81279	0.615119	0.674762
602	N	0.866597	0.644703	0.67628
603	C	0.893903	0.698521	0.679429
604	N	0.865191	0.723233	0.680926
605	C	0.811648	0.69706	0.678858
606	N	0.78637	0.642954	0.675229
607	C	0.725026	0.777625	0.998162
608	N	0.776124	0.803742	0.678529
609	C	0.807383	0.781923	0.684428
610	C	0.785211	0.726562	0.676877
611	N	0.734106	0.700441	0.996493
612	C	0.702889	0.722291	0.990467
613	C	0.653912	0.689551	0.971525
614	C	0.856331	0.814789	0.703447
615	O	0.627956	0.644814	0.986821
616	O	0.647668	0.691926	0.930677
617	H	0.66558	0.720601	0.913881
618	O	0.88251	0.85879	0.686852
619	O	0.861601	0.813361	0.744536
620	H	0.843527	0.785007	0.761655
621	C	0.724099	0.94545	0.002637
622	N	0.77797	0.97245	0.671469
623	C	0.809769	0.526111	0.673167
624	C	0.786152	0.558744	0.672697
625	N	0.732298	0.531732	0.003765
626	C	0.700368	0.97798	0.002137
627	C	0.646506	0.958972	0.99838
628	C	0.863291	0.543512	0.675722
629	O	0.627891	0.94642	0.960648
630	O	0.623392	0.975391	0.022623
631	H	0.633625	0.987896	0.050131
632	O	0.884176	0.557976	0.712508
633	O	0.893059	0.564313	0.643301
634	H	0.882553	0.559947	0.614936
635	C	0.560514	0.776342	0.999518
636	N	0.535924	0.804126	0.67588
637	C	0.983032	0.783412	0.681363
638	C	0.949681	0.727666	0.677485
639	N	0.974276	0.699871	0.00117
640	C	0.527176	0.720593	0.995735
641	C	0.543034	0.685189	0.983121
642	C	0.967246	0.818681	0.694372
643	O	0.542286	0.678262	0.942629
644	O	0.52933	0.64487	0.005822
645	H	0.52633	0.643524	0.035472
646	O	0.965762	0.823878	0.734958
647	O	0.982494	0.860508	0.673466
648	H	0.987684	0.863833	0.64405
