data_C288H216N144_2018-02-15_10:37:47
#******************************************
#
# CIF file created by Zeo++
# Zeo++ is an open source package to
# analyze microporous materials
#
#*******************************************

_cell_length_a		28.8631   
_cell_length_b		28.8631   
_cell_length_c		29.477   
_cell_angle_alpha		90   
_cell_angle_beta		90   
_cell_angle_gamma		120   

_symmetry_space_group_name_H-M		'P1'
_symmetry_Int_Tables_number		1
_symmetry_cell_setting		Monoclinic

loop_
_symmetry_equiv_pos_as_xyz
'+x,+y,+z'

loop_
_atom_site_label
_atom_site_type_symbol
_atom_site_fract_x
_atom_site_fract_y
_atom_site_fract_z
1	C	0.125316	0.314876	0.007043
2	N	0.041503	0.272972	0.302602
3	C	0.069234	0.286834	0.008921
4	C	0.039488	0.27196	0.049849
5	C	0.064574	0.284502	0.095275
6	H	0.089452	0.266145	0.099284
7	H	0.034435	0.269432	0.122094
8	H	0.089452	0.327738	0.099285
9	C	0.125316	0.314876	0.340377
10	N	0.041503	0.272972	0.635936
11	C	0.069234	0.286834	0.342253
12	C	0.039488	0.27196	0.383183
13	C	0.064574	0.284502	0.428609
14	H	0.089452	0.266145	0.432619
15	H	0.034435	0.269432	0.455426
16	H	0.089452	0.327738	0.432619
17	C	0.125316	0.314876	0.673712
18	N	0.041503	0.272972	0.969271
19	C	0.069234	0.286834	0.675588
20	C	0.039488	0.27196	0.716514
21	C	0.064574	0.284502	0.761943
22	H	0.089452	0.266145	0.76595
23	H	0.034435	0.269432	0.788761
24	H	0.089452	0.327738	0.765953
25	C	0.125317	0.814877	0.007043
26	N	0.041504	0.772971	0.302602
27	C	0.069234	0.786833	0.008921
28	C	0.03949	0.771959	0.049849
29	C	0.064576	0.784505	0.095275
30	H	0.089453	0.766146	0.099284
31	H	0.034437	0.769434	0.122094
32	H	0.089453	0.827739	0.099285
33	C	0.125317	0.814877	0.340377
34	N	0.041504	0.772971	0.635936
35	C	0.069234	0.786833	0.342253
36	C	0.03949	0.771959	0.383183
37	C	0.064576	0.784505	0.428609
38	H	0.089453	0.766146	0.432619
39	H	0.034437	0.769434	0.455426
40	H	0.089453	0.827739	0.432619
41	C	0.125317	0.814877	0.673712
42	N	0.041504	0.772971	0.969271
43	C	0.069234	0.786833	0.675588
44	C	0.03949	0.771959	0.716514
45	C	0.064576	0.784505	0.761943
46	H	0.089453	0.766146	0.76595
47	H	0.034437	0.769434	0.788761
48	H	0.089453	0.827739	0.765953
49	C	0.207303	0.396864	0.007026
50	N	0.152885	0.369294	0.007382
51	N	0.152884	0.288027	0.007382
52	C	0.207302	0.314873	0.007029
53	N	0.234149	0.369292	0.007368
54	C	0.319311	0.120876	0.009437
55	N	0.37373	0.14845	0.008998
56	C	0.401303	0.202869	0.009425
57	N	0.373731	0.229718	0.008989
58	C	0.319312	0.20287	0.009427
59	N	0.292464	0.14845	0.009
60	C	0.288012	0.234174	0.253283
61	C	0.276407	0.245778	0.299453
62	H	0.250525	0.210186	0.235017
63	H	0.309819	0.212363	0.253487
64	H	0.312002	0.271661	0.235018
65	N	0.249216	0.27297	0.302593
66	C	0.235345	0.286835	0.008909
67	C	0.25021	0.271959	0.04984
68	C	0.237665	0.284505	0.095264
69	H	0.256024	0.327741	0.099271
70	H	0.252732	0.269437	0.122085
71	H	0.194429	0.266149	0.099271
72	N	0.277404	0.244764	0.046766
73	C	0.291284	0.230889	0.340442
74	C	0.288013	0.058279	0.25329
75	C	0.276406	0.035067	0.299459
76	H	0.312006	0.044785	0.235026
77	H	0.309819	0.101896	0.253497
78	H	0.250527	0.04478	0.235023
79	N	0.249216	0.480682	0.302596
80	C	0.235347	0.452946	0.00891
81	C	0.250209	0.482682	0.049843
82	C	0.237662	0.457586	0.095265
83	H	0.194427	0.432707	0.099271
84	H	0.252729	0.487723	0.122088
85	H	0.256022	0.432711	0.099272
86	N	0.277402	0.037071	0.046772
87	C	0.291281	0.06483	0.340448
88	C	0.463917	0.234179	0.253286
89	C	0.487121	0.245781	0.299457
90	H	0.477417	0.271667	0.235022
91	H	0.4203	0.212371	0.253487
92	H	0.477416	0.210192	0.235022
93	N	0.4851	0.244767	0.04677
94	C	0.45735	0.230895	0.340442
95	C	0.207303	0.396864	0.34036
96	N	0.152885	0.369294	0.340713
97	N	0.152884	0.288027	0.340716
98	C	0.207302	0.314873	0.34036
99	N	0.234149	0.369292	0.340699
100	C	0.319311	0.120876	0.342769
101	N	0.37373	0.14845	0.342331
102	C	0.401303	0.202869	0.342759
103	N	0.373731	0.229718	0.342321
104	C	0.319312	0.20287	0.342759
105	N	0.292464	0.14845	0.342335
106	C	0.288012	0.234174	0.586617
107	C	0.276407	0.245778	0.632785
108	H	0.250525	0.210186	0.568351
109	H	0.309819	0.212363	0.58682
110	H	0.312002	0.271661	0.568351
111	N	0.249216	0.27297	0.635926
112	C	0.235345	0.286835	0.342243
113	C	0.25021	0.271959	0.383173
114	C	0.237665	0.284505	0.428598
115	H	0.256024	0.327741	0.432605
116	H	0.252732	0.269437	0.455419
117	H	0.194429	0.266149	0.432605
118	N	0.277404	0.244764	0.3801
119	C	0.291284	0.230889	0.673773
120	C	0.288013	0.058279	0.586623
121	C	0.276406	0.035067	0.632791
122	H	0.312006	0.044785	0.568358
123	H	0.309819	0.101896	0.58683
124	H	0.250527	0.04478	0.568355
125	N	0.249216	0.480682	0.63593
126	C	0.235347	0.452946	0.342243
127	C	0.250209	0.482682	0.383177
128	C	0.237662	0.457586	0.428598
129	H	0.194427	0.432707	0.432605
130	H	0.252729	0.487723	0.455423
131	H	0.256022	0.432711	0.432605
132	N	0.277402	0.037071	0.380106
133	C	0.291281	0.06483	0.673779
134	C	0.463917	0.234179	0.58662
135	C	0.487121	0.245781	0.632791
136	H	0.477417	0.271667	0.568355
137	H	0.4203	0.212371	0.58682
138	H	0.477416	0.210192	0.568355
139	N	0.4851	0.244767	0.380103
140	C	0.45735	0.230895	0.673776
141	C	0.207303	0.396864	0.673695
142	N	0.152885	0.369294	0.674047
143	N	0.152884	0.288027	0.674047
144	C	0.207302	0.314873	0.673695
145	N	0.234149	0.369292	0.674034
146	C	0.319311	0.120876	0.676103
147	N	0.37373	0.14845	0.675666
148	C	0.401303	0.202869	0.676093
149	N	0.373731	0.229718	0.675655
150	C	0.319312	0.20287	0.676093
151	N	0.292464	0.14845	0.675666
152	C	0.288012	0.234174	0.919951
153	C	0.276407	0.245778	0.966119
154	H	0.250525	0.210186	0.901686
155	H	0.309819	0.212363	0.920154
156	H	0.312002	0.271661	0.901686
157	N	0.249216	0.27297	0.969261
158	C	0.235345	0.286835	0.675577
159	C	0.25021	0.271959	0.716508
160	C	0.237665	0.284505	0.761929
161	H	0.256024	0.327741	0.765939
162	H	0.252732	0.269437	0.78875
163	H	0.194429	0.266149	0.765939
164	N	0.277404	0.244764	0.713434
165	C	0.291284	0.230889	0.007107
166	C	0.288013	0.058279	0.919958
167	C	0.276406	0.035067	0.966126
168	H	0.312006	0.044785	0.901693
169	H	0.309819	0.101896	0.920165
170	H	0.250527	0.04478	0.901689
171	N	0.249216	0.480682	0.969264
172	C	0.235347	0.452946	0.675577
173	C	0.250209	0.482682	0.716508
174	C	0.237662	0.457586	0.761933
175	H	0.194427	0.432707	0.765939
176	H	0.252729	0.487723	0.788754
177	H	0.256022	0.432711	0.765939
178	N	0.277402	0.037071	0.713437
179	C	0.291281	0.06483	0.007114
180	C	0.463917	0.234179	0.919954
181	C	0.487121	0.245781	0.966126
182	H	0.477417	0.271667	0.901689
183	H	0.4203	0.212371	0.920154
184	H	0.477416	0.210192	0.901689
185	N	0.4851	0.244767	0.713437
186	C	0.45735	0.230895	0.00711
187	C	0.207305	0.896866	0.007026
188	N	0.152886	0.869294	0.007382
189	N	0.152884	0.788025	0.007382
190	C	0.207303	0.814873	0.007029
191	N	0.234151	0.869294	0.007368
192	C	0.319311	0.620875	0.009437
193	N	0.373732	0.648452	0.008998
194	C	0.401303	0.702868	0.009425
195	N	0.373733	0.72972	0.008989
196	C	0.319314	0.702872	0.009427
197	N	0.292466	0.648452	0.009
198	C	0.288012	0.734173	0.253283
199	C	0.276408	0.745779	0.299453
200	H	0.250525	0.710185	0.235017
201	H	0.30982	0.712366	0.253487
202	H	0.312004	0.771663	0.235018
203	N	0.249217	0.772971	0.302593
204	C	0.235347	0.786837	0.008909
205	C	0.250211	0.771959	0.04984
206	C	0.237666	0.784505	0.095264
207	H	0.256026	0.827743	0.099271
208	H	0.252734	0.769438	0.122085
209	H	0.194431	0.76615	0.099271
210	N	0.277406	0.744766	0.046766
211	C	0.291285	0.730888	0.340442
212	C	0.288013	0.558278	0.25329
213	C	0.276406	0.535066	0.299459
214	H	0.312006	0.544784	0.235026
215	H	0.30982	0.601897	0.253497
216	H	0.250528	0.54478	0.235023
217	N	0.249218	0.980683	0.302596
218	C	0.235348	0.952946	0.00891
219	C	0.250211	0.982683	0.049843
220	C	0.237664	0.957587	0.095265
221	H	0.194428	0.932707	0.099271
222	H	0.25273	0.987724	0.122088
223	H	0.256023	0.932711	0.099272
224	N	0.277402	0.537071	0.046772
225	C	0.291282	0.564831	0.340448
226	C	0.463918	0.734181	0.253286
227	C	0.487122	0.745783	0.299457
228	H	0.477417	0.771667	0.235022
229	H	0.4203	0.71237	0.253487
230	H	0.477419	0.710193	0.235022
231	N	0.485101	0.744766	0.04677
232	C	0.457351	0.730896	0.340442
233	C	0.207305	0.896866	0.34036
234	N	0.152886	0.869294	0.340713
235	N	0.152884	0.788025	0.340716
236	C	0.207303	0.814873	0.34036
237	N	0.234151	0.869294	0.340699
238	C	0.319311	0.620875	0.342769
239	N	0.373732	0.648452	0.342331
240	C	0.401303	0.702868	0.342759
241	N	0.373733	0.72972	0.342321
242	C	0.319314	0.702872	0.342759
243	N	0.292466	0.648452	0.342335
244	C	0.288012	0.734173	0.586617
245	C	0.276408	0.745779	0.632785
246	H	0.250525	0.710185	0.568351
247	H	0.30982	0.712366	0.58682
248	H	0.312004	0.771663	0.568351
249	N	0.249217	0.772971	0.635926
250	C	0.235347	0.786837	0.342243
251	C	0.250211	0.771959	0.383173
252	C	0.237666	0.784505	0.428598
253	H	0.256026	0.827743	0.432605
254	H	0.252734	0.769438	0.455419
255	H	0.194431	0.76615	0.432605
256	N	0.277406	0.744766	0.3801
257	C	0.291285	0.730888	0.673773
258	C	0.288013	0.558278	0.586623
259	C	0.276406	0.535066	0.632791
260	H	0.312006	0.544784	0.568358
261	H	0.30982	0.601897	0.58683
262	H	0.250528	0.54478	0.568355
263	N	0.249218	0.980683	0.63593
264	C	0.235348	0.952946	0.342243
265	C	0.250211	0.982683	0.383177
266	C	0.237664	0.957587	0.428598
267	H	0.194428	0.932707	0.432605
268	H	0.25273	0.987724	0.455423
269	H	0.256023	0.932711	0.432605
270	N	0.277402	0.537071	0.380106
271	C	0.291282	0.564831	0.673779
272	C	0.463918	0.734181	0.58662
273	C	0.487122	0.745783	0.632791
274	H	0.477417	0.771667	0.568355
275	H	0.4203	0.71237	0.58682
276	H	0.477419	0.710193	0.568355
277	N	0.485101	0.744766	0.380103
278	C	0.457351	0.730896	0.673776
279	C	0.207305	0.896866	0.673695
280	N	0.152886	0.869294	0.674047
281	N	0.152884	0.788025	0.674047
282	C	0.207303	0.814873	0.673695
283	N	0.234151	0.869294	0.674034
284	C	0.319311	0.620875	0.676103
285	N	0.373732	0.648452	0.675666
286	C	0.401303	0.702868	0.676093
287	N	0.373733	0.72972	0.675655
288	C	0.319314	0.702872	0.676093
289	N	0.292466	0.648452	0.675666
290	C	0.288012	0.734173	0.919951
291	C	0.276408	0.745779	0.966119
292	H	0.250525	0.710185	0.901686
293	H	0.30982	0.712366	0.920154
294	H	0.312004	0.771663	0.901686
295	N	0.249217	0.772971	0.969261
296	C	0.235347	0.786837	0.675577
297	C	0.250211	0.771959	0.716508
298	C	0.237666	0.784505	0.761929
299	H	0.256026	0.827743	0.765939
300	H	0.252734	0.769438	0.78875
301	H	0.194431	0.76615	0.765939
302	N	0.277406	0.744766	0.713434
303	C	0.291285	0.730888	0.007107
304	C	0.288013	0.558278	0.919958
305	C	0.276406	0.535066	0.966126
306	H	0.312006	0.544784	0.901693
307	H	0.30982	0.601897	0.920165
308	H	0.250528	0.54478	0.901689
309	N	0.249218	0.980683	0.969264
310	C	0.235348	0.952946	0.675577
311	C	0.250211	0.982683	0.716511
312	C	0.237664	0.957587	0.761933
313	H	0.194428	0.932707	0.765939
314	H	0.25273	0.987724	0.788754
315	H	0.256023	0.932711	0.765939
316	N	0.277402	0.537071	0.713437
317	C	0.291282	0.564831	0.007114
318	C	0.463918	0.734181	0.919954
319	C	0.487122	0.745783	0.966126
320	H	0.477417	0.771667	0.901689
321	H	0.4203	0.71237	0.920154
322	H	0.477419	0.710193	0.901689
323	N	0.485101	0.744766	0.713437
324	C	0.457351	0.730896	0.00711
325	C	0.707304	0.396864	0.007026
326	N	0.652885	0.369294	0.007382
327	C	0.625316	0.314876	0.007043
328	N	0.652885	0.288027	0.007382
329	C	0.707302	0.314873	0.007029
330	N	0.734151	0.369292	0.007368
331	C	0.81931	0.120876	0.009437
332	N	0.87373	0.14845	0.008998
333	C	0.901304	0.202869	0.009425
334	N	0.873731	0.229718	0.008989
335	C	0.81931	0.20287	0.009427
336	N	0.792464	0.14845	0.009
337	C	0.788013	0.234174	0.253283
338	C	0.776405	0.245778	0.299453
339	H	0.750523	0.210186	0.235017
340	H	0.809818	0.212363	0.253487
341	H	0.812002	0.271661	0.235018
342	N	0.749216	0.27297	0.302593
343	C	0.735347	0.286835	0.008909
344	C	0.750211	0.271959	0.04984
345	C	0.737664	0.284505	0.095264
346	H	0.756025	0.327741	0.099271
347	H	0.752733	0.269437	0.122085
348	H	0.694428	0.266149	0.099271
349	N	0.777406	0.244764	0.046766
350	C	0.791284	0.230889	0.340442
351	C	0.788012	0.058279	0.25329
352	C	0.776405	0.035067	0.299459
353	H	0.812006	0.044785	0.235026
354	H	0.80982	0.101896	0.253497
355	H	0.750528	0.04478	0.235023
356	N	0.749216	0.480682	0.302596
357	C	0.735348	0.452946	0.00891
358	C	0.75021	0.482682	0.049843
359	C	0.737662	0.457586	0.095265
360	H	0.694428	0.432707	0.099271
361	H	0.75273	0.487723	0.122088
362	H	0.756021	0.432711	0.099272
363	N	0.777401	0.037071	0.046772
364	C	0.79128	0.06483	0.340448
365	C	0.963915	0.234179	0.253286
366	C	0.987119	0.245781	0.299457
367	H	0.977417	0.271667	0.235022
368	H	0.920301	0.212371	0.253487
369	H	0.977418	0.210192	0.235022
370	N	0.541505	0.272972	0.302602
371	C	0.569235	0.286834	0.008921
372	C	0.539489	0.27196	0.049849
373	C	0.564573	0.284502	0.095275
374	H	0.589451	0.266145	0.099284
375	H	0.534435	0.269432	0.122094
376	H	0.589451	0.327738	0.099285
377	N	0.985101	0.244767	0.04677
378	C	0.95735	0.230895	0.340442
379	C	0.707304	0.396864	0.34036
380	N	0.652885	0.369294	0.340713
381	C	0.625316	0.314876	0.340377
382	N	0.652885	0.288027	0.340716
383	C	0.707302	0.314873	0.34036
384	N	0.734151	0.369292	0.340699
385	C	0.81931	0.120876	0.342769
386	N	0.87373	0.14845	0.342331
387	C	0.901304	0.202869	0.342759
388	N	0.873731	0.229718	0.342321
389	C	0.81931	0.20287	0.342759
390	N	0.792464	0.14845	0.342335
391	C	0.788013	0.234174	0.586617
392	C	0.776405	0.245778	0.632785
393	H	0.750523	0.210186	0.568351
394	H	0.809818	0.212363	0.58682
395	H	0.812002	0.271661	0.568351
396	N	0.749216	0.27297	0.635926
397	C	0.735347	0.286835	0.342243
398	C	0.750211	0.271959	0.383173
399	C	0.737664	0.284505	0.428598
400	H	0.756025	0.327741	0.432605
401	H	0.752733	0.269437	0.455419
402	H	0.694428	0.266149	0.432605
403	N	0.777406	0.244764	0.3801
404	C	0.791284	0.230889	0.673773
405	C	0.788012	0.058279	0.586623
406	C	0.776405	0.035067	0.632791
407	H	0.812006	0.044785	0.568358
408	H	0.80982	0.101896	0.58683
409	H	0.750528	0.04478	0.568355
410	N	0.749216	0.480682	0.63593
411	C	0.735348	0.452946	0.342243
412	C	0.75021	0.482682	0.383177
413	C	0.737662	0.457586	0.428598
414	H	0.694428	0.432707	0.432605
415	H	0.75273	0.487723	0.455423
416	H	0.756021	0.432711	0.432605
417	N	0.777401	0.037071	0.380106
418	C	0.79128	0.06483	0.673779
419	C	0.963915	0.234179	0.58662
420	C	0.987119	0.245781	0.632791
421	H	0.977417	0.271667	0.568355
422	H	0.920301	0.212371	0.58682
423	H	0.977418	0.210192	0.568355
424	N	0.541505	0.272972	0.635936
425	C	0.569235	0.286834	0.342253
426	C	0.539489	0.27196	0.383183
427	C	0.564573	0.284502	0.428609
428	H	0.589451	0.266145	0.432619
429	H	0.534435	0.269432	0.455426
430	H	0.589451	0.327738	0.432619
431	N	0.985101	0.244767	0.380103
432	C	0.95735	0.230895	0.673776
433	C	0.707304	0.396864	0.673695
434	N	0.652885	0.369294	0.674047
435	C	0.625316	0.314876	0.673712
436	N	0.652885	0.288027	0.674047
437	C	0.707302	0.314873	0.673695
438	N	0.734151	0.369292	0.674034
439	C	0.81931	0.120876	0.676103
440	N	0.87373	0.14845	0.675666
441	C	0.901304	0.202869	0.676093
442	N	0.873731	0.229718	0.675655
443	C	0.81931	0.20287	0.676093
444	N	0.792464	0.14845	0.675666
445	C	0.788013	0.234174	0.919951
446	C	0.776405	0.245778	0.966119
447	H	0.750523	0.210186	0.901686
448	H	0.809818	0.212363	0.920154
449	H	0.812002	0.271661	0.901686
450	N	0.749216	0.27297	0.969261
451	C	0.735347	0.286835	0.675577
452	C	0.750211	0.271959	0.716508
453	C	0.737664	0.284505	0.761929
454	H	0.756025	0.327741	0.765939
455	H	0.752733	0.269437	0.78875
456	H	0.694428	0.266149	0.765939
457	N	0.777406	0.244764	0.713434
458	C	0.791284	0.230889	0.007107
459	C	0.788012	0.058279	0.919958
460	C	0.776405	0.035067	0.966126
461	H	0.812006	0.044785	0.901693
462	H	0.80982	0.101896	0.920165
463	H	0.750528	0.04478	0.901689
464	N	0.749216	0.480682	0.969264
465	C	0.735348	0.452946	0.675577
466	C	0.75021	0.482682	0.716508
467	C	0.737662	0.457586	0.761933
468	H	0.694428	0.432707	0.765939
469	H	0.75273	0.487723	0.788754
470	H	0.756021	0.432711	0.765939
471	N	0.777401	0.037071	0.713437
472	C	0.79128	0.06483	0.007114
473	C	0.963915	0.234179	0.919954
474	C	0.987119	0.245781	0.966126
475	H	0.977417	0.271667	0.901689
476	H	0.920301	0.212371	0.920154
477	H	0.977418	0.210192	0.901689
478	N	0.541505	0.272972	0.969271
479	C	0.569235	0.286834	0.675588
480	C	0.539489	0.27196	0.716514
481	C	0.564573	0.284502	0.761943
482	H	0.589451	0.266145	0.76595
483	H	0.534435	0.269432	0.788761
484	H	0.589451	0.327738	0.765953
485	N	0.985101	0.244767	0.713437
486	C	0.95735	0.230895	0.00711
487	C	0.707305	0.896866	0.007026
488	N	0.652886	0.869294	0.007382
489	C	0.625317	0.814877	0.007043
490	N	0.652884	0.788025	0.007382
491	C	0.707303	0.814873	0.007029
492	N	0.734151	0.869294	0.007368
493	C	0.81931	0.620875	0.009437
494	N	0.873731	0.648452	0.008998
495	C	0.901303	0.702868	0.009425
496	N	0.873733	0.72972	0.008989
497	C	0.819315	0.702872	0.009427
498	N	0.792465	0.648452	0.009
499	C	0.788013	0.734173	0.253283
500	C	0.776409	0.745779	0.299453
501	H	0.750526	0.710185	0.235017
502	H	0.809822	0.712366	0.253487
503	H	0.812003	0.771663	0.235018
504	N	0.749216	0.772971	0.302593
505	C	0.735347	0.786837	0.008909
506	C	0.75021	0.771959	0.04984
507	C	0.737666	0.784505	0.095264
508	H	0.756026	0.827743	0.099271
509	H	0.752734	0.769438	0.122085
510	H	0.694431	0.76615	0.099271
511	N	0.777407	0.744766	0.046766
512	C	0.791283	0.730888	0.340442
513	C	0.788015	0.558278	0.25329
514	C	0.776405	0.535066	0.299459
515	H	0.812006	0.544784	0.235026
516	H	0.80982	0.601897	0.253497
517	H	0.750527	0.54478	0.235023
518	N	0.749218	0.980683	0.302596
519	C	0.735348	0.952946	0.00891
520	C	0.750211	0.982683	0.049843
521	C	0.737664	0.957587	0.095265
522	H	0.694428	0.932707	0.099271
523	H	0.75273	0.987724	0.122088
524	H	0.756024	0.932711	0.099272
525	N	0.777404	0.537071	0.046772
526	C	0.791284	0.564831	0.340448
527	C	0.963919	0.734181	0.253286
528	C	0.987123	0.745783	0.299457
529	H	0.977417	0.771667	0.235022
530	H	0.920301	0.71237	0.253487
531	H	0.977418	0.710193	0.235022
532	N	0.541504	0.772971	0.302602
533	C	0.569234	0.786833	0.008921
534	C	0.539488	0.771959	0.049849
535	C	0.564576	0.784505	0.095275
536	H	0.589454	0.766146	0.099284
537	H	0.534437	0.769434	0.122094
538	H	0.589453	0.827739	0.099285
539	N	0.985101	0.744766	0.04677
540	C	0.957351	0.730896	0.340442
541	C	0.707305	0.896866	0.34036
542	N	0.652886	0.869294	0.340713
543	C	0.625317	0.814877	0.340377
544	N	0.652884	0.788025	0.340716
545	C	0.707303	0.814873	0.34036
546	N	0.734151	0.869294	0.340699
547	C	0.81931	0.620875	0.342769
548	N	0.873731	0.648452	0.342331
549	C	0.901303	0.702868	0.342759
550	N	0.873733	0.72972	0.342321
551	C	0.819315	0.702872	0.342759
552	N	0.792465	0.648452	0.342335
553	C	0.788013	0.734173	0.586617
554	C	0.776409	0.745779	0.632785
555	H	0.750526	0.710185	0.568351
556	H	0.809822	0.712366	0.58682
557	H	0.812003	0.771663	0.568351
558	N	0.749216	0.772971	0.635926
559	C	0.735347	0.786837	0.342243
560	C	0.75021	0.771959	0.383173
561	C	0.737666	0.784505	0.428598
562	H	0.756026	0.827743	0.432605
563	H	0.752734	0.769438	0.455419
564	H	0.694431	0.76615	0.432605
565	N	0.777407	0.744766	0.3801
566	C	0.791283	0.730888	0.673773
567	C	0.788015	0.558278	0.586623
568	C	0.776405	0.535066	0.632791
569	H	0.812006	0.544784	0.568358
570	H	0.80982	0.601897	0.58683
571	H	0.750527	0.54478	0.568355
572	N	0.749218	0.980683	0.63593
573	C	0.735348	0.952946	0.342243
574	C	0.750211	0.982683	0.383177
575	C	0.737664	0.957587	0.428598
576	H	0.694428	0.932707	0.432605
577	H	0.75273	0.987724	0.455423
578	H	0.756024	0.932711	0.432605
579	N	0.777404	0.537071	0.380106
580	C	0.791284	0.564831	0.673779
581	C	0.963919	0.734181	0.58662
582	C	0.987123	0.745783	0.632791
583	H	0.977417	0.771667	0.568355
584	H	0.920301	0.71237	0.58682
585	H	0.977418	0.710193	0.568355
586	N	0.541504	0.772971	0.635936
587	C	0.569234	0.786833	0.342253
588	C	0.539488	0.771959	0.383183
589	C	0.564576	0.784505	0.428609
590	H	0.589454	0.766146	0.432619
591	H	0.534437	0.769434	0.455426
592	H	0.589453	0.827739	0.432619
593	N	0.985101	0.744766	0.380103
594	C	0.957351	0.730896	0.673776
595	C	0.707305	0.896866	0.673695
596	N	0.652886	0.869294	0.674047
597	C	0.625317	0.814877	0.673712
598	N	0.652884	0.788025	0.674047
599	C	0.707303	0.814873	0.673695
600	N	0.734151	0.869294	0.674034
601	C	0.81931	0.620875	0.676103
602	N	0.873731	0.648452	0.675666
603	C	0.901303	0.702868	0.676093
604	N	0.873733	0.72972	0.675655
605	C	0.819315	0.702872	0.676093
606	N	0.792465	0.648452	0.675666
607	C	0.788013	0.734173	0.919951
608	C	0.776409	0.745779	0.966119
609	H	0.750526	0.710185	0.901686
610	H	0.809822	0.712366	0.920154
611	H	0.812003	0.771663	0.901686
612	N	0.749216	0.772971	0.969261
613	C	0.735347	0.786837	0.675577
614	C	0.75021	0.771959	0.716508
615	C	0.737666	0.784505	0.761929
616	H	0.756026	0.827743	0.765939
617	H	0.752734	0.769438	0.78875
618	H	0.694431	0.76615	0.765939
619	N	0.777407	0.744766	0.713434
620	C	0.791283	0.730888	0.007107
621	C	0.788015	0.558278	0.919958
622	C	0.776405	0.535066	0.966126
623	H	0.812006	0.544784	0.901693
624	H	0.80982	0.601897	0.920165
625	H	0.750527	0.54478	0.901689
626	N	0.749218	0.980683	0.969264
627	C	0.735348	0.952946	0.675577
628	C	0.750211	0.982683	0.716511
629	C	0.737664	0.957587	0.761933
630	H	0.694428	0.932707	0.765939
631	H	0.75273	0.987724	0.788754
632	H	0.756024	0.932711	0.765939
633	N	0.777404	0.537071	0.713437
634	C	0.791284	0.564831	0.007114
635	C	0.963919	0.734181	0.919954
636	C	0.987123	0.745783	0.966126
637	H	0.977417	0.771667	0.901689
638	H	0.920301	0.71237	0.920154
639	H	0.977418	0.710193	0.901689
640	N	0.541504	0.772971	0.969271
641	C	0.569234	0.786833	0.675588
642	C	0.539488	0.771959	0.716514
643	C	0.564576	0.784505	0.761943
644	H	0.589454	0.766146	0.76595
645	H	0.534437	0.769434	0.788761
646	H	0.589453	0.827739	0.765953
647	N	0.985101	0.744766	0.713437
648	C	0.957351	0.730896	0.00711
