data_C144H54N72O72_2018-02-15_10:45:19
#******************************************
#
# CIF file created by Zeo++
# Zeo++ is an open source package to
# analyze microporous materials
#
#*******************************************

_cell_length_a		29.2165   
_cell_length_b		29.2165   
_cell_length_c		29.9488   
_cell_angle_alpha		90   
_cell_angle_beta		90   
_cell_angle_gamma		120   

_symmetry_space_group_name_H-M		'P1'
_symmetry_Int_Tables_number		1
_symmetry_cell_setting		Monoclinic

loop_
_symmetry_equiv_pos_as_xyz
'+x,+y,+z'

loop_
_atom_site_label
_atom_site_type_symbol
_atom_site_fract_x
_atom_site_fract_y
_atom_site_fract_z
1	N	0.015379	0.604034	0.012573
2	N	0.015379	0.604034	0.345906
3	N	0.015379	0.604034	0.679242
4	O	0.024033	0.630838	0.047586
5	O	0.019847	0.632482	0.979527
6	O	0.024033	0.630838	0.38092
7	O	0.019847	0.632482	0.31286
8	O	0.024033	0.630838	0.714255
9	O	0.019847	0.632482	0.646195
10	C	0.280632	0.642003	0.002472
11	N	0.306406	0.614176	0.002557
12	C	0.360135	0.639055	0.002454
13	N	0.387962	0.692655	0.002544
14	C	0.363082	0.721506	0.00245
15	N	0.309479	0.69573	0.002554
16	N	0.228359	0.615108	0.003095
17	N	0.388458	0.773774	0.00308
18	N	0.387028	0.613678	0.003085
19	C	0.721849	0.364022	0.005107
20	N	0.691836	0.38749	0.00492
21	C	0.638115	0.35825	0.005102
22	N	0.614647	0.304769	0.004947
23	C	0.643886	0.280288	0.005137
24	N	0.697368	0.310301	0.004956
25	N	0.773857	0.394648	0.004814
26	N	0.62251	0.22828	0.00487
27	N	0.607492	0.379636	0.004792
28	C	0.580814	0.441345	0.015661
29	C	0.565562	0.457541	0.054538
30	C	0.529499	0.476468	0.052555
31	C	0.508938	0.479899	0.010531
32	C	0.523895	0.46373	0.304431
33	C	0.559552	0.444364	0.307529
34	H	0.570964	0.43361	0.278909
35	C	0.4745	0.50115	0.007839
36	C	0.495881	0.556572	0.004389
37	C	0.461269	0.57725	0.002345
38	C	0.405699	0.544115	0.003735
39	C	0.385436	0.488985	0.006965
40	C	0.418976	0.467054	0.009061
41	H	0.477403	0.617337	0.999875
42	H	0.345408	0.463837	0.008086
43	H	0.580839	0.455798	0.084872
44	N	0.398095	0.411766	0.012573
45	N	0.551453	0.590261	0.003034
46	N	0.513929	0.492336	0.091729
47	N	0.503574	0.467987	0.262634
48	O	0.371292	0.393616	0.047585
49	O	0.539862	0.498743	0.236759
50	O	0.552794	0.529776	0.111054
51	O	0.567531	0.622021	0.035288
52	O	0.369649	0.387787	0.979527
53	O	0.477591	0.423722	0.244001
54	O	0.490889	0.45464	0.118739
55	O	0.565903	0.616084	0.967233
56	C	0.371026	0.563887	0.002213
57	C	0.618181	0.425726	0.018193
58	H	0.652948	0.450218	0.032137
59	H	0.332316	0.53849	0.000886
60	C	0.560778	0.139893	0.015709
61	C	0.54457	0.108426	0.054575
62	C	0.525638	0.053436	0.052575
63	C	0.522216	0.029464	0.010542
64	C	0.538389	0.060605	0.304452
65	C	0.557761	0.115629	0.307568
66	H	0.568526	0.137808	0.278955
67	C	0.500966	0.973773	0.007835
68	C	0.445545	0.939728	0.00438
69	C	0.424874	0.88444	0.00233
70	C	0.458013	0.862012	0.003718
71	C	0.513141	0.896882	0.006951
72	C	0.535067	0.952352	0.009055
73	H	0.384786	0.860486	0.999855
74	H	0.538293	0.882006	0.008073
75	H	0.546313	0.125433	0.084916
76	N	0.590356	0.986764	0.012572
77	N	0.411853	0.961608	0.003029
78	N	0.509764	0.021982	0.091739
79	N	0.534142	0.036046	0.262648
80	O	0.608502	0.978104	0.047584
81	O	0.503396	0.041592	0.236774
82	O	0.472321	0.023402	0.111067
83	O	0.38009	0.945917	0.03528
84	O	0.614338	0.982302	0.979527
85	O	0.578413	0.054333	0.244021
86	O	0.547455	0.036625	0.118751
87	O	0.386035	0.950241	0.967226
88	C	0.438247	0.807566	0.002193
89	C	0.576419	0.192882	0.018268
90	H	0.551872	0.20315	0.032104
91	H	0.463643	0.794255	0.000853
92	C	0.862243	0.421319	0.01568
93	C	0.893696	0.436574	0.054553
94	C	0.948688	0.472635	0.052563
95	C	0.972672	0.493194	0.010535
96	C	0.941543	0.478231	0.304439
97	C	0.886518	0.442578	0.307544
98	H	0.864348	0.431164	0.278926
99	C	0.028362	0.52763	0.007838
100	C	0.062406	0.506252	0.004387
101	C	0.117694	0.540866	0.002344
102	C	0.140127	0.596434	0.003735
103	C	0.10526	0.616697	0.006965
104	C	0.049789	0.583155	0.009061
105	H	0.14165	0.524733	0.999875
106	H	0.120138	0.656725	0.008087
107	H	0.876684	0.421307	0.084889
108	N	0.040523	0.45068	0.003033
109	N	0.98013	0.48821	0.091734
110	N	0.96611	0.498545	0.26264
111	O	0.960575	0.462256	0.236765
112	O	0.97871	0.449348	0.11106
113	O	0.056206	0.434602	0.035286
114	O	0.947829	0.524531	0.244008
115	O	0.965479	0.511256	0.118744
116	O	0.051897	0.436231	0.967233
117	C	0.194572	0.631111	0.002216
118	C	0.809254	0.38396	0.018222
119	H	0.798983	0.34918	0.032133
120	H	0.207885	0.669819	0.000892
121	C	0.280632	0.642003	0.335806
122	N	0.306406	0.614176	0.335889
123	C	0.360135	0.639055	0.335789
124	N	0.387962	0.692655	0.335879
125	C	0.363082	0.721506	0.335786
126	N	0.309479	0.69573	0.335886
127	N	0.228359	0.615108	0.33643
128	N	0.388458	0.773774	0.336414
129	N	0.387028	0.613678	0.33642
130	C	0.721849	0.364022	0.33844
131	N	0.691836	0.38749	0.338253
132	C	0.638115	0.35825	0.338437
133	N	0.614647	0.304769	0.33828
134	C	0.643886	0.280288	0.33847
135	N	0.697368	0.310301	0.33829
136	N	0.773857	0.394648	0.338147
137	N	0.62251	0.22828	0.338203
138	N	0.607492	0.379636	0.338127
139	C	0.580814	0.441345	0.348995
140	C	0.565562	0.457541	0.387871
141	C	0.529499	0.476468	0.385888
142	C	0.508938	0.479899	0.343863
143	C	0.523895	0.46373	0.637764
144	C	0.559552	0.444364	0.640863
145	H	0.570964	0.43361	0.612244
146	C	0.4745	0.50115	0.341172
147	C	0.495881	0.556572	0.337723
148	C	0.461269	0.57725	0.335679
149	C	0.405699	0.544115	0.337068
150	C	0.385436	0.488985	0.340297
151	C	0.418976	0.467054	0.342394
152	H	0.477403	0.617337	0.333207
153	H	0.345408	0.463837	0.341419
154	H	0.580839	0.455798	0.418206
155	N	0.398095	0.411766	0.345906
156	N	0.551453	0.590261	0.336367
157	N	0.513929	0.492336	0.425065
158	N	0.503574	0.467987	0.59597
159	O	0.371292	0.393616	0.38092
160	O	0.539862	0.498743	0.570092
161	O	0.552794	0.529776	0.444388
162	O	0.567531	0.622021	0.368622
163	O	0.369649	0.387787	0.312859
164	O	0.477591	0.423722	0.577334
165	O	0.490889	0.45464	0.452074
166	O	0.565903	0.616084	0.300565
167	C	0.371026	0.563887	0.335549
168	C	0.618181	0.425726	0.351526
169	H	0.652948	0.450218	0.36547
170	H	0.332316	0.53849	0.33422
171	C	0.560778	0.139893	0.349042
172	C	0.54457	0.108426	0.387908
173	C	0.525638	0.053436	0.385908
174	C	0.522216	0.029464	0.343876
175	C	0.538389	0.060605	0.637787
176	C	0.557761	0.115629	0.640903
177	H	0.568526	0.137808	0.612291
178	C	0.500966	0.973773	0.341168
179	C	0.445545	0.939728	0.337713
180	C	0.424874	0.88444	0.335662
181	C	0.458013	0.862012	0.337051
182	C	0.513141	0.896882	0.340287
183	C	0.535067	0.952352	0.342387
184	H	0.384786	0.860486	0.333188
185	H	0.538293	0.882006	0.341405
186	H	0.546313	0.125433	0.41825
187	N	0.590356	0.986764	0.345906
188	N	0.411853	0.961608	0.336364
189	N	0.509764	0.021982	0.425071
190	N	0.534142	0.036046	0.595983
191	O	0.608502	0.978104	0.380916
192	O	0.503396	0.041592	0.570109
193	O	0.472321	0.023402	0.444401
194	O	0.38009	0.945917	0.368615
195	O	0.614338	0.982302	0.312858
196	O	0.578413	0.054333	0.577354
197	O	0.547455	0.036625	0.452084
198	O	0.386035	0.950241	0.300558
199	C	0.438247	0.807566	0.335525
200	C	0.576419	0.192882	0.351603
201	H	0.551872	0.20315	0.365436
202	H	0.463643	0.794255	0.334186
203	C	0.862243	0.421319	0.349015
204	C	0.893696	0.436574	0.387888
205	C	0.948688	0.472635	0.385898
206	C	0.972672	0.493194	0.34387
207	C	0.941543	0.478231	0.637774
208	C	0.886518	0.442578	0.640879
209	H	0.864348	0.431164	0.612261
210	C	0.028362	0.52763	0.341172
211	C	0.062406	0.506252	0.337723
212	C	0.117694	0.540866	0.335679
213	C	0.140127	0.596434	0.337068
214	C	0.10526	0.616697	0.340297
215	C	0.049789	0.583155	0.342394
216	H	0.14165	0.524733	0.333205
217	H	0.120138	0.656725	0.341422
218	H	0.876684	0.421307	0.418223
219	N	0.040523	0.45068	0.336367
220	N	0.98013	0.48821	0.425068
221	N	0.96611	0.498545	0.595973
222	O	0.960575	0.462256	0.570099
223	O	0.97871	0.449348	0.444394
224	O	0.056206	0.434602	0.368619
225	O	0.947829	0.524531	0.577341
226	O	0.965479	0.511256	0.452078
227	O	0.051897	0.436231	0.300563
228	C	0.194572	0.631111	0.335549
229	C	0.809254	0.38396	0.351556
230	H	0.798983	0.34918	0.365466
231	H	0.207885	0.669819	0.334227
232	C	0.280632	0.642003	0.669141
233	N	0.306406	0.614176	0.669224
234	C	0.360135	0.639055	0.669121
235	N	0.387962	0.692655	0.669211
236	C	0.363082	0.721506	0.669118
237	N	0.309479	0.69573	0.669221
238	N	0.228359	0.615108	0.669762
239	N	0.388458	0.773774	0.669749
240	N	0.387028	0.613678	0.669752
241	C	0.721849	0.364022	0.671775
242	N	0.691836	0.38749	0.671588
243	C	0.638115	0.35825	0.671769
244	N	0.614647	0.304769	0.671615
245	C	0.643886	0.280288	0.671805
246	N	0.697368	0.310301	0.671625
247	N	0.773857	0.394648	0.671482
248	N	0.62251	0.22828	0.671538
249	N	0.607492	0.379636	0.671458
250	C	0.580814	0.441345	0.68233
251	C	0.565562	0.457541	0.721206
252	C	0.529499	0.476468	0.719223
253	C	0.508938	0.479899	0.677198
254	C	0.523895	0.46373	0.971099
255	C	0.559552	0.444364	0.974198
256	H	0.570964	0.43361	0.945576
257	C	0.4745	0.50115	0.674507
258	C	0.495881	0.556572	0.671058
259	C	0.461269	0.57725	0.669014
260	C	0.405699	0.544115	0.670403
261	C	0.385436	0.488985	0.673632
262	C	0.418976	0.467054	0.675729
263	H	0.477403	0.617337	0.66654
264	H	0.345408	0.463837	0.674754
265	H	0.580839	0.455798	0.751541
266	N	0.398095	0.411766	0.679242
267	N	0.551453	0.590261	0.669702
268	N	0.513929	0.492336	0.758396
269	N	0.503574	0.467987	0.929301
270	O	0.371292	0.393616	0.714251
271	O	0.539862	0.498743	0.903427
272	O	0.552794	0.529776	0.777723
273	O	0.567531	0.622021	0.701954
274	O	0.369649	0.387787	0.646192
275	O	0.477591	0.423722	0.910669
276	O	0.490889	0.45464	0.785406
277	O	0.565903	0.616084	0.633898
278	C	0.371026	0.563887	0.668881
279	C	0.618181	0.425726	0.684861
280	H	0.652948	0.450218	0.698805
281	H	0.332316	0.53849	0.667555
282	C	0.560778	0.139893	0.682377
283	C	0.54457	0.108426	0.721243
284	C	0.525638	0.053436	0.719243
285	C	0.522216	0.029464	0.677211
286	C	0.538389	0.060605	0.971119
287	C	0.557761	0.115629	0.974235
288	H	0.568526	0.137808	0.945622
289	C	0.500966	0.973773	0.674503
290	C	0.445545	0.939728	0.671048
291	C	0.424874	0.88444	0.668997
292	C	0.458013	0.862012	0.670386
293	C	0.513141	0.896882	0.673619
294	C	0.535067	0.952352	0.675722
295	H	0.384786	0.860486	0.666523
296	H	0.538293	0.882006	0.674741
297	H	0.546313	0.125433	0.751585
298	N	0.590356	0.986764	0.679238
299	N	0.411853	0.961608	0.669695
300	N	0.509764	0.021982	0.758406
301	N	0.534142	0.036046	0.929315
302	O	0.608502	0.978104	0.714251
303	O	0.503396	0.041592	0.90344
304	O	0.472321	0.023402	0.777736
305	O	0.38009	0.945917	0.701947
306	O	0.614338	0.982302	0.646192
307	O	0.578413	0.054333	0.910689
308	O	0.547455	0.036625	0.785419
309	O	0.386035	0.950241	0.633891
310	C	0.438247	0.807566	0.66886
311	C	0.576419	0.192882	0.684935
312	H	0.551872	0.20315	0.698771
313	H	0.463643	0.794255	0.667522
314	C	0.862243	0.421319	0.682347
315	C	0.893696	0.436574	0.72122
316	C	0.948688	0.472635	0.71923
317	C	0.972672	0.493194	0.677201
318	C	0.941543	0.478231	0.971106
319	C	0.886518	0.442578	0.974211
320	H	0.864348	0.431164	0.945596
321	C	0.028362	0.52763	0.674507
322	C	0.062406	0.506252	0.671054
323	C	0.117694	0.540866	0.669011
324	C	0.140127	0.596434	0.670403
325	C	0.10526	0.616697	0.673632
326	C	0.049789	0.583155	0.675729
327	H	0.14165	0.524733	0.66654
328	H	0.120138	0.656725	0.674754
329	H	0.876684	0.421307	0.751558
330	N	0.040523	0.45068	0.669702
331	N	0.98013	0.48821	0.758403
332	N	0.96611	0.498545	0.929308
333	O	0.960575	0.462256	0.903434
334	O	0.97871	0.449348	0.777729
335	O	0.056206	0.434602	0.701954
336	O	0.947829	0.524531	0.910676
337	O	0.965479	0.511256	0.785413
338	O	0.051897	0.436231	0.633898
339	C	0.194572	0.631111	0.668884
340	C	0.809254	0.38396	0.684891
341	H	0.798983	0.34918	0.698802
342	H	0.207885	0.669819	0.667562
