data_C216H108N54O27_2018-02-15_10:36:58
#******************************************
#
# CIF file created by Zeo++
# Zeo++ is an open source package to
# analyze microporous materials
#
#*******************************************

_cell_length_a		30.1595   
_cell_length_b		30.1596   
_cell_length_c		29.4658   
_cell_angle_alpha		90   
_cell_angle_beta		90   
_cell_angle_gamma		120   

_symmetry_space_group_name_H-M		'P1'
_symmetry_Int_Tables_number		1
_symmetry_cell_setting		Monoclinic

loop_
_symmetry_equiv_pos_as_xyz
'+x,+y,+z'

loop_
_atom_site_label
_atom_site_type_symbol
_atom_site_fract_x
_atom_site_fract_y
_atom_site_fract_z
1	C	0.040879	0.482278	0.983475
2	C	0.069475	0.536553	0.313692
3	C	0.040026	0.561305	0.308319
4	H	0.059186	0.461868	0.988291
5	O	0.062227	0.613148	0.305818
6	H	0.071323	0.622092	0.273749
7	C	0.040879	0.482278	0.316808
8	C	0.069475	0.536553	0.647024
9	C	0.040026	0.561305	0.641652
10	H	0.059186	0.461868	0.321623
11	O	0.062227	0.613148	0.639151
12	H	0.071323	0.622092	0.607083
13	C	0.040879	0.482278	0.650143
14	C	0.069475	0.536553	0.980359
15	C	0.040026	0.561305	0.974987
16	H	0.059186	0.461868	0.654955
17	O	0.062227	0.613148	0.972486
18	H	0.071323	0.622092	0.940415
19	C	0.198858	0.641369	0.013383
20	N	0.150733	0.616173	0.995421
21	C	0.124358	0.564031	0.988314
22	N	0.150447	0.538077	0.996283
23	C	0.198561	0.56114	0.014378
24	C	0.198858	0.641369	0.346717
25	N	0.150733	0.616173	0.328754
26	C	0.124358	0.564031	0.321646
27	N	0.150447	0.538077	0.329615
28	C	0.198561	0.56114	0.347711
29	C	0.198858	0.641369	0.680049
30	N	0.150733	0.616173	0.662089
31	C	0.124358	0.564031	0.654979
32	N	0.150447	0.538077	0.662948
33	C	0.198561	0.56114	0.681043
34	N	0.219733	0.611805	0.02228
35	C	0.241847	0.513064	0.322977
36	C	0.232416	0.541966	0.02235
37	C	0.267506	0.562683	0.059129
38	H	0.218691	0.499124	0.295115
39	O	0.26104	0.588247	0.094398
40	H	0.23093	0.562878	0.111418
41	C	0.232653	0.69445	0.354349
42	C	0.242007	0.733429	0.322453
43	H	0.219409	0.724474	0.294229
44	C	0.267186	0.708459	0.057902
45	H	0.261018	0.682466	0.08296
46	N	0.219733	0.611805	0.355615
47	C	0.241847	0.513064	0.656309
48	C	0.232416	0.541966	0.355683
49	C	0.267506	0.562683	0.392461
50	H	0.218691	0.499124	0.62845
51	O	0.26104	0.588247	0.427733
52	H	0.23093	0.562878	0.444753
53	C	0.232653	0.69445	0.687685
54	C	0.242007	0.733429	0.655787
55	H	0.219409	0.724474	0.627561
56	C	0.267186	0.708459	0.391236
57	H	0.261018	0.682466	0.416292
58	N	0.219733	0.611805	0.688947
59	C	0.241847	0.513064	0.989645
60	C	0.232416	0.541966	0.689019
61	C	0.267506	0.562683	0.725797
62	H	0.218691	0.499124	0.961782
63	O	0.26104	0.588247	0.761065
64	H	0.23093	0.562878	0.778084
65	C	0.232653	0.69445	0.021017
66	C	0.242007	0.733429	0.989119
67	H	0.219409	0.724474	0.960896
68	C	0.267186	0.708459	0.724568
69	H	0.261018	0.682466	0.749628
70	C	0.381346	0.562224	0.013245
71	N	0.406495	0.539194	0.99539
72	C	0.458648	0.5649	0.988345
73	N	0.484682	0.616946	0.996273
74	C	0.461664	0.64207	0.014309
75	N	0.410978	0.612655	0.022152
76	C	0.460404	0.823689	0.013129
77	N	0.483399	0.871876	0.995285
78	C	0.457666	0.898301	0.98825
79	N	0.405618	0.872248	0.996191
80	C	0.380533	0.824079	0.014169
81	N	0.409976	0.802854	0.02205
82	C	0.827939	0.375134	0.013066
83	N	0.87621	0.39997	0.995309
84	C	0.90264	0.45212	0.988107
85	N	0.876958	0.478495	0.995801
86	C	0.828781	0.45565	0.013704
87	N	0.807326	0.404989	0.021784
88	C	0.647429	0.457315	0.013269
89	N	0.622568	0.480658	0.995387
90	C	0.570408	0.454934	0.988257
91	N	0.544044	0.40291	0.996123
92	C	0.566867	0.377647	0.014219
93	N	0.617567	0.406877	0.022127
94	C	0.565416	0.194608	0.013593
95	N	0.542034	0.146472	0.995547
96	C	0.567718	0.120014	0.988325
97	N	0.619749	0.145606	0.996123
98	C	0.645061	0.193645	0.014314
99	N	0.615863	0.215117	0.022377
100	C	0.957369	0.479368	0.980353
101	C	0.986747	0.454628	0.983414
102	H	0.969012	0.415928	0.988264
103	C	0.985741	0.53336	0.308737
104	H	0.966832	0.55354	0.306945
105	C	0.543202	0.482446	0.980448
106	C	0.567975	0.536568	0.983356
107	C	0.540359	0.563085	0.983383
108	C	0.486078	0.537437	0.313742
109	C	0.461271	0.483205	0.308569
110	H	0.560816	0.601839	0.987972
111	H	0.606713	0.557545	0.987985
112	C	0.489191	0.456833	0.308981
113	H	0.468976	0.417739	0.30736
114	O	0.409418	0.453575	0.306236
115	H	0.400357	0.453533	0.274173
116	C	0.540183	0.065316	0.980383
117	C	0.48606	0.035978	0.98339
118	C	0.45952	0.981842	0.983407
119	C	0.485159	0.953204	0.313702
120	C	0.539372	0.982604	0.308393
121	H	0.420796	0.963561	0.988182
122	H	0.465122	0.053743	0.98824
123	C	0.565757	0.036894	0.308782
124	H	0.604849	0.055759	0.307108
125	O	0.568964	0.960348	0.305898
126	H	0.568889	0.951336	0.273815
127	C	0.328274	0.542981	0.354244
128	C	0.289254	0.513374	0.322377
129	H	0.298187	0.499507	0.294286
130	C	0.314378	0.56361	0.057796
131	H	0.340417	0.583454	0.082817
132	C	0.479657	0.789874	0.354125
133	C	0.509233	0.780483	0.32222
134	C	0.509575	0.73341	0.322802
135	C	0.480916	0.695108	0.022284
136	C	0.460135	0.709469	0.059033
137	H	0.523676	0.724183	0.295056
138	H	0.523214	0.803282	0.294136
139	C	0.459128	0.755375	0.057695
140	H	0.439311	0.76155	0.082756
141	O	0.434803	0.677492	0.094399
142	H	0.460327	0.672967	0.111384
143	C	0.289138	0.78082	0.322946
144	C	0.327528	0.790296	0.022295
145	C	0.313166	0.75529	0.059131
146	H	0.298489	0.803887	0.295018
147	O	0.345246	0.761902	0.094397
148	H	0.349938	0.792026	0.111361
149	C	0.700448	0.476171	0.354234
150	C	0.739439	0.505192	0.322156
151	C	0.786385	0.504607	0.322506
152	C	0.795479	0.47544	0.021844
153	C	0.76051	0.455152	0.05874
154	H	0.809609	0.518363	0.294666
155	H	0.730666	0.519232	0.29409
156	C	0.714109	0.455217	0.05771
157	H	0.688065	0.435622	0.082796
158	O	0.766638	0.429271	0.093924
159	H	0.796987	0.454344	0.110871
160	C	0.546795	0.228973	0.354529
161	C	0.517359	0.238644	0.322678
162	C	0.518002	0.286216	0.323019
163	C	0.547215	0.324562	0.022287
164	C	0.567726	0.309961	0.059072
165	H	0.504082	0.295611	0.295245
166	H	0.503326	0.215948	0.29455
167	C	0.567776	0.263561	0.058003
168	H	0.587474	0.257187	0.08304
169	O	0.593513	0.341971	0.094289
170	H	0.568324	0.346979	0.111329
171	C	0.793848	0.322164	0.354302
172	C	0.783905	0.282999	0.322418
173	C	0.736368	0.236017	0.322948
174	C	0.698154	0.227103	0.022292
175	C	0.71298	0.262172	0.059109
176	H	0.726852	0.212868	0.295055
177	H	0.806427	0.291631	0.294173
178	C	0.759348	0.308635	0.05784
179	H	0.765907	0.334763	0.082877
180	O	0.681067	0.256161	0.094347
181	H	0.675867	0.225886	0.111372
182	C	0.381346	0.562224	0.346578
183	N	0.406495	0.539194	0.328724
184	C	0.458648	0.5649	0.321677
185	N	0.484682	0.616946	0.329607
186	C	0.461664	0.64207	0.347643
187	N	0.410978	0.612655	0.355486
188	C	0.460404	0.823689	0.346462
189	N	0.483399	0.871876	0.328619
190	C	0.457666	0.898301	0.321582
191	N	0.405618	0.872248	0.329525
192	C	0.380533	0.824079	0.347504
193	N	0.409976	0.802854	0.355385
194	C	0.827939	0.375134	0.346401
195	N	0.87621	0.39997	0.32864
196	C	0.90264	0.45212	0.321439
197	N	0.876958	0.478495	0.329135
198	C	0.828781	0.45565	0.347036
199	N	0.807326	0.404989	0.355116
200	C	0.647429	0.457315	0.346602
201	N	0.622568	0.480658	0.328718
202	C	0.570408	0.454934	0.32159
203	N	0.544044	0.40291	0.329456
204	C	0.566867	0.377647	0.347552
205	N	0.617567	0.406877	0.355459
206	C	0.565416	0.194608	0.346927
207	N	0.542034	0.146472	0.328879
208	C	0.567718	0.120014	0.321656
209	N	0.619749	0.145606	0.329457
210	C	0.645061	0.193645	0.347647
211	N	0.615863	0.215117	0.35571
212	C	0.957369	0.479368	0.313686
213	C	0.986747	0.454628	0.316746
214	H	0.969012	0.415928	0.321596
215	C	0.985741	0.53336	0.642069
216	H	0.966832	0.55354	0.640277
217	C	0.543202	0.482446	0.313781
218	C	0.567975	0.536568	0.316688
219	C	0.540359	0.563085	0.316716
220	C	0.486078	0.537437	0.647075
221	C	0.461271	0.483205	0.641903
222	H	0.560816	0.601839	0.321303
223	H	0.606713	0.557545	0.321319
224	C	0.489191	0.456833	0.642314
225	H	0.468976	0.417739	0.640695
226	O	0.409418	0.453575	0.639568
227	H	0.400357	0.453533	0.607507
228	C	0.540183	0.065316	0.313717
229	C	0.48606	0.035978	0.316725
230	C	0.45952	0.981842	0.31674
231	C	0.485159	0.953204	0.647034
232	C	0.539372	0.982604	0.641726
233	H	0.420796	0.963561	0.321515
234	H	0.465122	0.053743	0.321573
235	C	0.565757	0.036894	0.642117
236	H	0.604849	0.055759	0.64044
237	O	0.568964	0.960348	0.639232
238	H	0.568889	0.951336	0.607147
239	C	0.328274	0.542981	0.68758
240	C	0.289254	0.513374	0.655712
241	H	0.298187	0.499507	0.627619
242	C	0.314378	0.56361	0.391131
243	H	0.340417	0.583454	0.41615
244	C	0.479657	0.789874	0.687457
245	C	0.509233	0.780483	0.655553
246	C	0.509575	0.73341	0.656136
247	C	0.480916	0.695108	0.355619
248	C	0.460135	0.709469	0.392366
249	H	0.523676	0.724183	0.628389
250	H	0.523214	0.803282	0.627469
251	C	0.459128	0.755375	0.391029
252	H	0.439311	0.76155	0.416089
253	O	0.434803	0.677492	0.427733
254	H	0.460327	0.672967	0.444719
255	C	0.289138	0.78082	0.656279
256	C	0.327528	0.790296	0.355629
257	C	0.313166	0.75529	0.392465
258	H	0.298489	0.803887	0.628352
259	O	0.345246	0.761902	0.427729
260	H	0.349938	0.792026	0.444695
261	C	0.700448	0.476171	0.687569
262	C	0.739439	0.505192	0.655488
263	C	0.786385	0.504607	0.655841
264	C	0.795479	0.47544	0.355178
265	C	0.76051	0.455152	0.392075
266	H	0.809609	0.518363	0.627999
267	H	0.730666	0.519232	0.627422
268	C	0.714109	0.455217	0.391043
269	H	0.688065	0.435622	0.41613
270	O	0.766638	0.429271	0.427258
271	H	0.796987	0.454344	0.444206
272	C	0.546795	0.228973	0.687865
273	C	0.517359	0.238644	0.656011
274	C	0.518002	0.286216	0.656354
275	C	0.547215	0.324562	0.355622
276	C	0.567726	0.309961	0.392407
277	H	0.504082	0.295611	0.628579
278	H	0.503326	0.215948	0.627883
279	C	0.567776	0.263561	0.391338
280	H	0.587474	0.257187	0.416374
281	O	0.593513	0.341971	0.427624
282	H	0.568324	0.346979	0.444664
283	C	0.793848	0.322164	0.687634
284	C	0.783905	0.282999	0.655753
285	C	0.736368	0.236017	0.656282
286	C	0.698154	0.227103	0.355626
287	C	0.71298	0.262172	0.392441
288	H	0.726852	0.212868	0.628389
289	H	0.806427	0.291631	0.627507
290	C	0.759348	0.308635	0.391172
291	H	0.765907	0.334763	0.416211
292	O	0.681067	0.256161	0.427679
293	H	0.675867	0.225886	0.444705
294	C	0.381346	0.562224	0.679913
295	N	0.406495	0.539194	0.662059
296	C	0.458648	0.5649	0.65501
297	N	0.484682	0.616946	0.662941
298	C	0.461664	0.64207	0.680975
299	N	0.410978	0.612655	0.688818
300	C	0.460404	0.823689	0.679798
301	N	0.483399	0.871876	0.661953
302	C	0.457666	0.898301	0.654915
303	N	0.405618	0.872248	0.662859
304	C	0.380533	0.824079	0.680836
305	N	0.409976	0.802854	0.688717
306	C	0.827939	0.375134	0.679733
307	N	0.87621	0.39997	0.661974
308	C	0.90264	0.45212	0.654772
309	N	0.876958	0.478495	0.662469
310	C	0.828781	0.45565	0.680371
311	N	0.807326	0.404989	0.688452
312	C	0.647429	0.457315	0.679937
313	N	0.622568	0.480658	0.662052
314	C	0.570408	0.454934	0.654925
315	N	0.544044	0.40291	0.662788
316	C	0.566867	0.377647	0.680887
317	N	0.617567	0.406877	0.688795
318	C	0.565416	0.194608	0.680259
319	N	0.542034	0.146472	0.662211
320	C	0.567718	0.120014	0.654989
321	N	0.619749	0.145606	0.662792
322	C	0.645061	0.193645	0.680982
323	N	0.615863	0.215117	0.689046
324	C	0.957369	0.479368	0.647021
325	C	0.986747	0.454628	0.650079
326	H	0.969012	0.415928	0.654932
327	C	0.985741	0.53336	0.975405
328	H	0.966832	0.55354	0.973613
329	C	0.543202	0.482446	0.647116
330	C	0.567975	0.536568	0.650021
331	C	0.540359	0.563085	0.650051
332	C	0.486078	0.537437	0.98041
333	C	0.461271	0.483205	0.975235
334	H	0.560816	0.601839	0.654636
335	H	0.606713	0.557545	0.654653
336	C	0.489191	0.456833	0.975649
337	H	0.468976	0.417739	0.974027
338	O	0.409418	0.453575	0.972903
339	H	0.400357	0.453533	0.940839
340	C	0.540183	0.065316	0.647051
341	C	0.48606	0.035978	0.650058
342	C	0.45952	0.981842	0.650072
343	C	0.485159	0.953204	0.98037
344	C	0.539372	0.982604	0.975058
345	H	0.420796	0.963561	0.65485
346	H	0.465122	0.053743	0.654908
347	C	0.565757	0.036894	0.975449
348	H	0.604849	0.055759	0.973776
349	O	0.568964	0.960348	0.972564
350	H	0.568889	0.951336	0.940483
351	C	0.328274	0.542981	0.020911
352	C	0.289254	0.513374	0.989044
353	H	0.298187	0.499507	0.960954
354	C	0.314378	0.56361	0.724463
355	H	0.340417	0.583454	0.749485
356	C	0.479657	0.789874	0.020791
357	C	0.509233	0.780483	0.988888
358	C	0.509575	0.73341	0.989468
359	C	0.480916	0.695108	0.688951
360	C	0.460135	0.709469	0.725702
361	H	0.523676	0.724183	0.961724
362	H	0.523214	0.803282	0.960801
363	C	0.459128	0.755375	0.724361
364	H	0.439311	0.76155	0.749424
365	O	0.434803	0.677492	0.761065
366	H	0.460327	0.672967	0.778051
367	C	0.289138	0.78082	0.989614
368	C	0.327528	0.790296	0.688961
369	C	0.313166	0.75529	0.725797
370	H	0.298489	0.803887	0.961684
371	O	0.345246	0.761902	0.761065
372	H	0.349938	0.792026	0.778027
373	C	0.700448	0.476171	0.020902
374	C	0.739439	0.505192	0.988823
375	C	0.786385	0.504607	0.989173
376	C	0.795479	0.47544	0.688513
377	C	0.76051	0.455152	0.725406
378	H	0.809609	0.518363	0.961334
379	H	0.730666	0.519232	0.960757
380	C	0.714109	0.455217	0.724378
381	H	0.688065	0.435622	0.749461
382	O	0.766638	0.429271	0.760593
383	H	0.796987	0.454344	0.777538
384	C	0.546795	0.228973	0.021196
385	C	0.517359	0.238644	0.989346
386	C	0.518002	0.286216	0.989686
387	C	0.547215	0.324562	0.688954
388	C	0.567726	0.309961	0.725739
389	H	0.504082	0.295611	0.961914
390	H	0.503326	0.215948	0.961219
391	C	0.567776	0.263561	0.72467
392	H	0.587474	0.257187	0.749706
393	O	0.593513	0.341971	0.760956
394	H	0.568324	0.346979	0.777996
395	C	0.793848	0.322164	0.020968
396	C	0.783905	0.282999	0.989085
397	C	0.736368	0.236017	0.989614
398	C	0.698154	0.227103	0.688961
399	C	0.71298	0.262172	0.725776
400	H	0.726852	0.212868	0.961724
401	H	0.806427	0.291631	0.960839
402	C	0.759348	0.308635	0.724507
403	H	0.765907	0.334763	0.749543
404	O	0.681067	0.256161	0.761014
405	H	0.675867	0.225886	0.77804
