data_C336H288N72O48_2018-02-15_10:34:48
#******************************************
#
# CIF file created by Zeo++
# Zeo++ is an open source package to
# analyze microporous materials
#
#*******************************************

_cell_length_a		30.1666   
_cell_length_b		30.1666   
_cell_length_c		29.9582   
_cell_angle_alpha		90   
_cell_angle_beta		90   
_cell_angle_gamma		90   

_symmetry_space_group_name_H-M		'P1'
_symmetry_Int_Tables_number		1
_symmetry_cell_setting		Tetragonal

loop_
_symmetry_equiv_pos_as_xyz
'+x,+y,+z'

loop_
_atom_site_label
_atom_site_type_symbol
_atom_site_fract_x
_atom_site_fract_y
_atom_site_fract_z
1	C	0.018691	0.484231	0.33959
2	C	0.064496	0.490695	0.33134
3	C	0.096347	0.458596	0.34402
4	C	0.081266	0.419437	0.031722
5	C	0.035947	0.411995	0.040716
6	C	0.005121	0.444856	0.027977
7	H	0.074585	0.019018	0.315599
8	H	0.472284	0.440212	0.035319
9	H	0.103987	0.39607	0.374656
10	C	0.486601	0.016825	0.994153
11	C	0.490907	0.061218	0.008795
12	C	0.458311	0.093378	0.998793
13	C	0.420883	0.080432	0.973608
14	C	0.415184	0.036325	0.292256
15	C	0.44842	0.004964	0.302696
16	H	0.017506	0.070084	0.028076
17	H	0.396677	0.103254	0.966925
18	H	0.444621	0.472924	0.292059
19	C	0.3745	0.022954	0.267563
20	H	0.354471	0.052131	0.926085
21	H	0.384044	0.007812	0.235794
22	C	0.461991	0.139443	0.016414
23	H	0.459452	0.137506	0.052749
24	H	0.433943	0.159415	0.338075
25	C	0.021113	0.371298	0.064433
26	H	0.006715	0.38108	0.096493
27	H	0.049535	0.350053	0.405472
28	C	0.145153	0.463542	0.337594
29	H	0.156245	0.434752	0.318325
30	H	0.160427	0.461533	0.037368
31	C	0.994401	0.301252	0.029872
32	C	0.996473	0.285903	0.318886
33	C	0.000172	0.240088	0.309178
34	C	0.002893	0.20907	0.344854
35	C	0.002092	0.224945	0.055925
36	H	0.993817	0.308182	0.293258
37	C	0.99702	0.270346	0.065082
38	H	0.003819	0.203196	0.082065
39	H	0.995147	0.280826	0.097493
40	N	0.999907	0.224781	0.26453
41	O	0.031887	0.240301	0.242665
42	O	0.964421	0.234723	0.244961
43	N	0.987662	0.347046	0.03722
44	H	0.956471	0.351637	0.050197
45	N	0.004351	0.162222	0.338205
46	H	0.013383	0.154426	0.306145
47	C	0.208627	0.00399	0.975661
48	C	0.226671	0.995054	0.26652
49	C	0.273084	0.990917	0.26021
50	C	0.301851	0.996748	0.297222
51	C	0.283856	0.006805	0.006117
52	H	0.20576	0.989902	0.240135
53	C	0.237785	0.010362	0.012003
54	H	0.304259	0.010665	0.033132
55	H	0.225453	0.016677	0.043159
56	N	0.291536	0.980369	0.21817
57	O	0.277864	0.943513	0.204316
58	O	0.282193	0.009431	0.18963
59	N	0.161844	0.003925	0.981095
60	H	0.152801	0.031932	0.998322
61	N	0.348432	0.991182	0.295001
62	H	0.355784	0.959044	0.286427
63	C	0.018691	0.484231	0.672925
64	C	0.064496	0.490695	0.664674
65	C	0.096347	0.458596	0.677351
66	C	0.081266	0.419437	0.365056
67	C	0.035947	0.411995	0.374048
68	C	0.005121	0.444856	0.361311
69	H	0.074585	0.019018	0.648932
70	H	0.472284	0.440212	0.368651
71	H	0.103987	0.39607	0.707988
72	C	0.486601	0.016825	0.327488
73	C	0.490907	0.061218	0.342127
74	C	0.458311	0.093378	0.332129
75	C	0.420883	0.080432	0.306942
76	C	0.415184	0.036325	0.625589
77	C	0.44842	0.004964	0.636027
78	H	0.017506	0.070084	0.361411
79	H	0.396677	0.103254	0.300258
80	H	0.444621	0.472924	0.625392
81	C	0.3745	0.022954	0.600895
82	H	0.354471	0.052131	0.25942
83	H	0.384044	0.007812	0.569127
84	C	0.461991	0.139443	0.349748
85	H	0.459452	0.137506	0.386082
86	H	0.433943	0.159415	0.671407
87	C	0.021113	0.371298	0.397765
88	H	0.006715	0.38108	0.429826
89	H	0.049535	0.350053	0.738804
90	C	0.145153	0.463542	0.670929
91	H	0.156245	0.434752	0.651659
92	H	0.160427	0.461533	0.3707
93	C	0.994401	0.301252	0.363203
94	C	0.996473	0.285903	0.65222
95	C	0.000172	0.240088	0.64251
96	C	0.002893	0.20907	0.678189
97	C	0.002092	0.224945	0.38926
98	H	0.993817	0.308182	0.626591
99	C	0.99702	0.270346	0.398416
100	H	0.003819	0.203196	0.415399
101	H	0.995147	0.280826	0.430828
102	N	0.999907	0.224781	0.597864
103	O	0.031887	0.240301	0.575997
104	O	0.964421	0.234723	0.578293
105	N	0.987662	0.347046	0.370554
106	H	0.956471	0.351637	0.383532
107	N	0.004351	0.162222	0.67154
108	H	0.013383	0.154426	0.639479
109	C	0.208627	0.00399	0.308996
110	C	0.226671	0.995054	0.599853
111	C	0.273084	0.990917	0.593541
112	C	0.301851	0.996748	0.630556
113	C	0.283856	0.006805	0.33945
114	H	0.20576	0.989902	0.573467
115	C	0.237785	0.010362	0.345335
116	H	0.304259	0.010665	0.366464
117	H	0.225453	0.016677	0.376492
118	N	0.291536	0.980369	0.551503
119	O	0.277864	0.943513	0.53765
120	O	0.282193	0.009431	0.522963
121	N	0.161844	0.003925	0.314429
122	H	0.152801	0.031932	0.331656
123	N	0.348432	0.991182	0.628333
124	H	0.355784	0.959044	0.619758
125	C	0.018691	0.484231	0.006258
126	C	0.064496	0.490695	0.998005
127	C	0.096347	0.458596	0.010686
128	C	0.081266	0.419437	0.698387
129	C	0.035947	0.411995	0.70738
130	C	0.005121	0.444856	0.694642
131	H	0.074585	0.019018	0.982263
132	H	0.472284	0.440212	0.701986
133	H	0.103987	0.39607	0.041322
134	C	0.486601	0.016825	0.660822
135	C	0.490907	0.061218	0.675459
136	C	0.458311	0.093378	0.665462
137	C	0.420883	0.080432	0.640273
138	C	0.415184	0.036325	0.958921
139	C	0.44842	0.004964	0.969362
140	H	0.017506	0.070084	0.694742
141	H	0.396677	0.103254	0.63359
142	H	0.444621	0.472924	0.958724
143	C	0.3745	0.022954	0.93423
144	H	0.354471	0.052131	0.592753
145	H	0.384044	0.007812	0.902459
146	C	0.461991	0.139443	0.683079
147	H	0.459452	0.137506	0.719413
148	H	0.433943	0.159415	0.004741
149	C	0.021113	0.371298	0.7311
150	H	0.006715	0.38108	0.763158
151	H	0.049535	0.350053	0.072139
152	C	0.145153	0.463542	0.004262
153	H	0.156245	0.434752	0.984991
154	H	0.160427	0.461533	0.704035
155	C	0.994401	0.301252	0.696538
156	C	0.996473	0.285903	0.985551
157	C	0.000172	0.240088	0.975844
158	C	0.002893	0.20907	0.011522
159	C	0.002092	0.224945	0.722591
160	H	0.993817	0.308182	0.959922
161	C	0.99702	0.270346	0.731747
162	H	0.003819	0.203196	0.748731
163	H	0.995147	0.280826	0.764159
164	N	0.999907	0.224781	0.931196
165	O	0.031887	0.240301	0.909332
166	O	0.964421	0.234723	0.911625
167	N	0.987662	0.347046	0.703885
168	H	0.956471	0.351637	0.716863
169	N	0.004351	0.162222	0.004873
170	H	0.013383	0.154426	0.97281
171	C	0.208627	0.00399	0.642329
172	C	0.226671	0.995054	0.933185
173	C	0.273084	0.990917	0.926876
174	C	0.301851	0.996748	0.963888
175	C	0.283856	0.006805	0.672782
176	H	0.20576	0.989902	0.906802
177	C	0.237785	0.010362	0.67867
178	H	0.304259	0.010665	0.699796
179	H	0.225453	0.016677	0.709823
180	N	0.291536	0.980369	0.884834
181	O	0.277864	0.943513	0.870982
182	O	0.282193	0.009431	0.856294
183	N	0.161844	0.003925	0.64776
184	H	0.152801	0.031932	0.664988
185	N	0.348432	0.991182	0.961668
186	H	0.355784	0.959044	0.953093
187	C	0.018691	0.984231	0.33959
188	C	0.064496	0.990695	0.33134
189	C	0.096347	0.958596	0.34402
190	C	0.081266	0.919437	0.031722
191	C	0.035947	0.911995	0.040716
192	C	0.005121	0.944856	0.027977
193	H	0.074585	0.519018	0.315599
194	H	0.472284	0.940212	0.035319
195	H	0.103987	0.896074	0.374656
196	C	0.486601	0.516826	0.994153
197	C	0.490907	0.561217	0.008795
198	C	0.458311	0.593378	0.998793
199	C	0.420883	0.580433	0.973608
200	C	0.415184	0.536325	0.292256
201	C	0.44842	0.504962	0.302696
202	H	0.017506	0.570084	0.028076
203	H	0.396677	0.603253	0.966925
204	H	0.444621	0.972923	0.292059
205	C	0.3745	0.522952	0.267563
206	H	0.354471	0.55213	0.926085
207	H	0.384044	0.507813	0.235794
208	C	0.461991	0.639442	0.016414
209	H	0.459452	0.637506	0.052749
210	H	0.433943	0.659414	0.338075
211	C	0.021113	0.871298	0.064433
212	H	0.006715	0.88108	0.096493
213	H	0.049535	0.850052	0.405472
214	C	0.145153	0.963542	0.337594
215	H	0.156245	0.934752	0.318325
216	H	0.160427	0.961533	0.037368
217	C	0.994401	0.801253	0.029872
218	C	0.996473	0.785902	0.318886
219	C	0.000172	0.74009	0.309178
220	C	0.002893	0.709069	0.344854
221	C	0.002092	0.724944	0.055925
222	H	0.993817	0.808182	0.293258
223	C	0.99702	0.770345	0.065082
224	H	0.003819	0.703195	0.082065
225	H	0.995147	0.780827	0.097493
226	N	0.999907	0.724781	0.26453
227	O	0.031887	0.740302	0.242665
228	O	0.964421	0.734723	0.244961
229	N	0.987662	0.847046	0.03722
230	H	0.956471	0.851637	0.050197
231	N	0.004351	0.662222	0.338205
232	H	0.013383	0.654426	0.306145
233	C	0.208627	0.503991	0.975661
234	C	0.226671	0.495051	0.26652
235	C	0.273084	0.490917	0.26021
236	C	0.301851	0.496748	0.297222
237	C	0.283856	0.506805	0.006117
238	H	0.20576	0.489903	0.240135
239	C	0.237785	0.510362	0.012003
240	H	0.304259	0.510664	0.033132
241	H	0.225453	0.516677	0.043159
242	N	0.291536	0.480369	0.21817
243	O	0.277864	0.443514	0.204316
244	O	0.282193	0.509431	0.18963
245	N	0.161844	0.503925	0.981095
246	H	0.152801	0.531932	0.998322
247	N	0.348432	0.491182	0.295001
248	H	0.355784	0.459044	0.286427
249	C	0.018691	0.984231	0.672925
250	C	0.064496	0.990695	0.664674
251	C	0.096347	0.958596	0.677351
252	C	0.081266	0.919437	0.365056
253	C	0.035947	0.911995	0.374048
254	C	0.005121	0.944856	0.361311
255	H	0.074585	0.519018	0.648932
256	H	0.472284	0.940212	0.368651
257	H	0.103987	0.896074	0.707988
258	C	0.486601	0.516826	0.327488
259	C	0.490907	0.561217	0.342127
260	C	0.458311	0.593378	0.332129
261	C	0.420883	0.580433	0.306942
262	C	0.415184	0.536325	0.625589
263	C	0.44842	0.504962	0.636027
264	H	0.017506	0.570084	0.361411
265	H	0.396677	0.603253	0.300258
266	H	0.444621	0.972923	0.625392
267	C	0.3745	0.522952	0.600895
268	H	0.354471	0.55213	0.25942
269	H	0.384044	0.507813	0.569127
270	C	0.461991	0.639442	0.349748
271	H	0.459452	0.637506	0.386082
272	H	0.433943	0.659414	0.671407
273	C	0.021113	0.871298	0.397765
274	H	0.006715	0.88108	0.429826
275	H	0.049535	0.850052	0.738804
276	C	0.145153	0.963542	0.670929
277	H	0.156245	0.934752	0.651659
278	H	0.160427	0.961533	0.3707
279	C	0.994401	0.801253	0.363203
280	C	0.996473	0.785902	0.65222
281	C	0.000172	0.74009	0.64251
282	C	0.002893	0.709069	0.678189
283	C	0.002092	0.724944	0.38926
284	H	0.993817	0.808182	0.626591
285	C	0.99702	0.770345	0.398416
286	H	0.003819	0.703195	0.415399
287	H	0.995147	0.780827	0.430828
288	N	0.999907	0.724781	0.597864
289	O	0.031887	0.740302	0.575997
290	O	0.964421	0.734723	0.578293
291	N	0.987662	0.847046	0.370554
292	H	0.956471	0.851637	0.383532
293	N	0.004351	0.662222	0.67154
294	H	0.013383	0.654426	0.639479
295	C	0.208627	0.503991	0.308996
296	C	0.226671	0.495051	0.599853
297	C	0.273084	0.490917	0.593541
298	C	0.301851	0.496748	0.630556
299	C	0.283856	0.506805	0.33945
300	H	0.20576	0.489903	0.573467
301	C	0.237785	0.510362	0.345335
302	H	0.304259	0.510664	0.366464
303	H	0.225453	0.516677	0.376492
304	N	0.291536	0.480369	0.551503
305	O	0.277864	0.443514	0.53765
306	O	0.282193	0.509431	0.522963
307	N	0.161844	0.503925	0.314429
308	H	0.152801	0.531932	0.331656
309	N	0.348432	0.491182	0.628333
310	H	0.355784	0.459044	0.619758
311	C	0.018691	0.984231	0.006258
312	C	0.064496	0.990695	0.998005
313	C	0.096347	0.958596	0.010686
314	C	0.081266	0.919437	0.698387
315	C	0.035947	0.911995	0.70738
316	C	0.005121	0.944856	0.694642
317	H	0.074585	0.519018	0.982263
318	H	0.472284	0.940212	0.701986
319	H	0.103987	0.896074	0.041322
320	C	0.486601	0.516826	0.660822
321	C	0.490907	0.561217	0.675459
322	C	0.458311	0.593378	0.665462
323	C	0.420883	0.580433	0.640273
324	C	0.415184	0.536325	0.958921
325	C	0.44842	0.504962	0.969362
326	H	0.017506	0.570084	0.694742
327	H	0.396677	0.603253	0.63359
328	H	0.444621	0.972923	0.958724
329	C	0.3745	0.522952	0.93423
330	H	0.354471	0.55213	0.592753
331	H	0.384044	0.507813	0.902459
332	C	0.461991	0.639442	0.683079
333	H	0.459452	0.637506	0.719413
334	H	0.433943	0.659414	0.004741
335	C	0.021113	0.871298	0.7311
336	H	0.006715	0.88108	0.763158
337	H	0.049535	0.850052	0.072139
338	C	0.145153	0.963542	0.004262
339	H	0.156245	0.934752	0.984991
340	H	0.160427	0.961533	0.704035
341	C	0.994401	0.801253	0.696538
342	C	0.996473	0.785902	0.985551
343	C	0.000172	0.74009	0.975844
344	C	0.002893	0.709069	0.011522
345	C	0.002092	0.724944	0.722591
346	H	0.993817	0.808182	0.959922
347	C	0.99702	0.770345	0.731747
348	H	0.003819	0.703195	0.748731
349	H	0.995147	0.780827	0.764159
350	N	0.999907	0.724781	0.931196
351	O	0.031887	0.740302	0.909332
352	O	0.964421	0.734723	0.911625
353	N	0.987662	0.847046	0.703885
354	H	0.956471	0.851637	0.716863
355	N	0.004351	0.662222	0.004873
356	H	0.013383	0.654426	0.97281
357	C	0.208627	0.503991	0.642329
358	C	0.226671	0.495051	0.933185
359	C	0.273084	0.490917	0.926876
360	C	0.301851	0.496748	0.963888
361	C	0.283856	0.506805	0.672782
362	H	0.20576	0.489903	0.906802
363	C	0.237785	0.510362	0.67867
364	H	0.304259	0.510664	0.699796
365	H	0.225453	0.516677	0.709823
366	N	0.291536	0.480369	0.884834
367	O	0.277864	0.443514	0.870982
368	O	0.282193	0.509431	0.856294
369	N	0.161844	0.503925	0.64776
370	H	0.152801	0.531932	0.664988
371	N	0.348432	0.491182	0.961668
372	H	0.355784	0.459044	0.953093
373	C	0.518693	0.484231	0.33959
374	C	0.564498	0.490695	0.33134
375	C	0.596348	0.458596	0.34402
376	C	0.581265	0.419437	0.031722
377	C	0.535947	0.411995	0.040716
378	C	0.505121	0.444856	0.027977
379	H	0.574586	0.019018	0.315599
380	H	0.972284	0.440212	0.035319
381	H	0.603989	0.39607	0.374656
382	C	0.986601	0.016825	0.994153
383	C	0.990907	0.061218	0.008795
384	C	0.958311	0.093378	0.998793
385	C	0.920882	0.080432	0.973608
386	C	0.915184	0.036325	0.292256
387	C	0.948419	0.004964	0.302696
388	H	0.517506	0.070084	0.028076
389	H	0.896677	0.103254	0.966925
390	H	0.944621	0.472924	0.292059
391	C	0.8745	0.022954	0.267563
392	H	0.854475	0.052131	0.926085
393	H	0.884044	0.007812	0.235794
394	C	0.961994	0.139443	0.016414
395	H	0.959452	0.137506	0.052749
396	H	0.933943	0.159415	0.338075
397	C	0.521113	0.371298	0.064433
398	H	0.506716	0.38108	0.096493
399	H	0.549535	0.350053	0.405472
400	C	0.645154	0.463542	0.337594
401	H	0.656245	0.434752	0.318325
402	H	0.660426	0.461533	0.037368
403	C	0.494401	0.301252	0.029872
404	C	0.496473	0.285903	0.318886
405	C	0.500172	0.240088	0.309178
406	C	0.502894	0.20907	0.344854
407	C	0.502092	0.224945	0.055925
408	H	0.493818	0.308182	0.293258
409	C	0.49702	0.270346	0.065082
410	H	0.503819	0.203196	0.082065
411	H	0.495147	0.280826	0.097493
412	N	0.499907	0.224781	0.26453
413	O	0.531886	0.240301	0.242665
414	O	0.464421	0.234723	0.244961
415	N	0.487662	0.347046	0.03722
416	H	0.456472	0.351637	0.050197
417	N	0.504352	0.162222	0.338205
418	H	0.513382	0.154426	0.306145
419	C	0.708628	0.00399	0.975661
420	C	0.726671	0.995054	0.26652
421	C	0.773083	0.990917	0.26021
422	C	0.80185	0.996748	0.297222
423	C	0.783857	0.006805	0.006117
424	H	0.70576	0.989902	0.240135
425	C	0.737786	0.010362	0.012003
426	H	0.80426	0.010665	0.033132
427	H	0.725454	0.016677	0.043159
428	N	0.791534	0.980369	0.21817
429	O	0.777863	0.943513	0.204316
430	O	0.782193	0.009431	0.18963
431	N	0.661844	0.003925	0.981095
432	H	0.652801	0.031932	0.998322
433	N	0.848431	0.991182	0.295001
434	H	0.855784	0.959044	0.286427
435	C	0.518693	0.484231	0.672925
436	C	0.564498	0.490695	0.664674
437	C	0.596348	0.458596	0.677351
438	C	0.581265	0.419437	0.365056
439	C	0.535947	0.411995	0.374048
440	C	0.505121	0.444856	0.361311
441	H	0.574586	0.019018	0.648932
442	H	0.972284	0.440212	0.368651
443	H	0.603989	0.39607	0.707988
444	C	0.986601	0.016825	0.327488
445	C	0.990907	0.061218	0.342127
446	C	0.958311	0.093378	0.332129
447	C	0.920882	0.080432	0.306942
448	C	0.915184	0.036325	0.625589
449	C	0.948419	0.004964	0.636027
450	H	0.517506	0.070084	0.361411
451	H	0.896677	0.103254	0.300258
452	H	0.944621	0.472924	0.625392
453	C	0.8745	0.022954	0.600895
454	H	0.854475	0.052131	0.25942
455	H	0.884044	0.007812	0.569127
456	C	0.961994	0.139443	0.349748
457	H	0.959452	0.137506	0.386082
458	H	0.933943	0.159415	0.671407
459	C	0.521113	0.371298	0.397765
460	H	0.506716	0.38108	0.429826
461	H	0.549535	0.350053	0.738804
462	C	0.645154	0.463542	0.670929
463	H	0.656245	0.434752	0.651659
464	H	0.660426	0.461533	0.3707
465	C	0.494401	0.301252	0.363203
466	C	0.496473	0.285903	0.65222
467	C	0.500172	0.240088	0.64251
468	C	0.502894	0.20907	0.678189
469	C	0.502092	0.224945	0.38926
470	H	0.493818	0.308182	0.626591
471	C	0.49702	0.270346	0.398416
472	H	0.503819	0.203196	0.415399
473	H	0.495147	0.280826	0.430828
474	N	0.499907	0.224781	0.597864
475	O	0.531886	0.240301	0.575997
476	O	0.464421	0.234723	0.578293
477	N	0.487662	0.347046	0.370554
478	H	0.456472	0.351637	0.383532
479	N	0.504352	0.162222	0.67154
480	H	0.513382	0.154426	0.639479
481	C	0.708628	0.00399	0.308996
482	C	0.726671	0.995054	0.599853
483	C	0.773083	0.990917	0.593541
484	C	0.80185	0.996748	0.630556
485	C	0.783857	0.006805	0.33945
486	H	0.70576	0.989902	0.573467
487	C	0.737786	0.010362	0.345335
488	H	0.80426	0.010665	0.366464
489	H	0.725454	0.016677	0.376492
490	N	0.791534	0.980369	0.551503
491	O	0.777863	0.943513	0.53765
492	O	0.782193	0.009431	0.522963
493	N	0.661844	0.003925	0.314429
494	H	0.652801	0.031932	0.331656
495	N	0.848431	0.991182	0.628333
496	H	0.855784	0.959044	0.619758
497	C	0.518693	0.484231	0.006258
498	C	0.564498	0.490695	0.998005
499	C	0.596348	0.458596	0.010686
500	C	0.581265	0.419437	0.698387
501	C	0.535947	0.411995	0.70738
502	C	0.505121	0.444856	0.694642
503	H	0.574586	0.019018	0.982263
504	H	0.972284	0.440212	0.701986
505	H	0.603989	0.39607	0.041322
506	C	0.986601	0.016825	0.660822
507	C	0.990907	0.061218	0.675459
508	C	0.958311	0.093378	0.665462
509	C	0.920882	0.080432	0.640273
510	C	0.915184	0.036325	0.958921
511	C	0.948419	0.004964	0.969362
512	H	0.517506	0.070084	0.694742
513	H	0.896677	0.103254	0.63359
514	H	0.944621	0.472924	0.958724
515	C	0.8745	0.022954	0.93423
516	H	0.854475	0.052131	0.592753
517	H	0.884044	0.007812	0.902459
518	C	0.961994	0.139443	0.683079
519	H	0.959452	0.137506	0.719413
520	H	0.933943	0.159415	0.004741
521	C	0.521113	0.371298	0.7311
522	H	0.506716	0.38108	0.763158
523	H	0.549535	0.350053	0.072139
524	C	0.645154	0.463542	0.004262
525	H	0.656245	0.434752	0.984991
526	H	0.660426	0.461533	0.704035
527	C	0.494401	0.301252	0.696538
528	C	0.496473	0.285903	0.985551
529	C	0.500172	0.240088	0.975844
530	C	0.502894	0.20907	0.011522
531	C	0.502092	0.224945	0.722591
532	H	0.493818	0.308182	0.959922
533	C	0.49702	0.270346	0.731747
534	H	0.503819	0.203196	0.748731
535	H	0.495147	0.280826	0.764159
536	N	0.499907	0.224781	0.931196
537	O	0.531886	0.240301	0.909332
538	O	0.464421	0.234723	0.911625
539	N	0.487662	0.347046	0.703885
540	H	0.456472	0.351637	0.716863
541	N	0.504352	0.162222	0.004873
542	H	0.513382	0.154426	0.97281
543	C	0.708628	0.00399	0.642329
544	C	0.726671	0.995054	0.933185
545	C	0.773083	0.990917	0.926876
546	C	0.80185	0.996748	0.963888
547	C	0.783857	0.006805	0.672782
548	H	0.70576	0.989902	0.906802
549	C	0.737786	0.010362	0.67867
550	H	0.80426	0.010665	0.699796
551	H	0.725454	0.016677	0.709823
552	N	0.791534	0.980369	0.884834
553	O	0.777863	0.943513	0.870982
554	O	0.782193	0.009431	0.856294
555	N	0.661844	0.003925	0.64776
556	H	0.652801	0.031932	0.664988
557	N	0.848431	0.991182	0.961668
558	H	0.855784	0.959044	0.953093
559	C	0.518693	0.984231	0.33959
560	C	0.564498	0.990695	0.33134
561	C	0.596348	0.958596	0.34402
562	C	0.581265	0.919437	0.031722
563	C	0.535947	0.911995	0.040716
564	C	0.505121	0.944856	0.027977
565	H	0.574586	0.519018	0.315599
566	H	0.972284	0.940212	0.035319
567	H	0.603989	0.896074	0.374656
568	C	0.986601	0.516826	0.994153
569	C	0.990907	0.561217	0.008795
570	C	0.958311	0.593378	0.998793
571	C	0.920882	0.580433	0.973608
572	C	0.915184	0.536325	0.292256
573	C	0.948419	0.504962	0.302696
574	H	0.517506	0.570084	0.028076
575	H	0.896677	0.603253	0.966925
576	H	0.944621	0.972923	0.292059
577	C	0.8745	0.522952	0.267563
578	H	0.854475	0.55213	0.926085
579	H	0.884044	0.507813	0.235794
580	C	0.961994	0.639442	0.016414
581	H	0.959452	0.637506	0.052749
582	H	0.933943	0.659414	0.338075
583	C	0.521113	0.871298	0.064433
584	H	0.506716	0.88108	0.096493
585	H	0.549535	0.850052	0.405472
586	C	0.645154	0.963542	0.337594
587	H	0.656245	0.934752	0.318325
588	H	0.660426	0.961533	0.037368
589	C	0.494401	0.801253	0.029872
590	C	0.496473	0.785902	0.318886
591	C	0.500172	0.74009	0.309178
592	C	0.502894	0.709069	0.344854
593	C	0.502092	0.724944	0.055925
594	H	0.493818	0.808182	0.293258
595	C	0.49702	0.770345	0.065082
596	H	0.503819	0.703195	0.082065
597	H	0.495147	0.780827	0.097493
598	N	0.499907	0.724781	0.26453
599	O	0.531886	0.740302	0.242665
600	O	0.464421	0.734723	0.244961
601	N	0.487662	0.847046	0.03722
602	H	0.456472	0.851637	0.050197
603	N	0.504352	0.662222	0.338205
604	H	0.513382	0.654426	0.306145
605	C	0.708628	0.503991	0.975661
606	C	0.726671	0.495051	0.26652
607	C	0.773083	0.490917	0.26021
608	C	0.80185	0.496748	0.297222
609	C	0.783857	0.506805	0.006117
610	H	0.70576	0.489903	0.240135
611	C	0.737786	0.510362	0.012003
612	H	0.80426	0.510664	0.033132
613	H	0.725454	0.516677	0.043159
614	N	0.791534	0.480369	0.21817
615	O	0.777863	0.443514	0.204316
616	O	0.782193	0.509431	0.18963
617	N	0.661844	0.503925	0.981095
618	H	0.652801	0.531932	0.998322
619	N	0.848431	0.491182	0.295001
620	H	0.855784	0.459044	0.286427
621	C	0.518693	0.984231	0.672925
622	C	0.564498	0.990695	0.664674
623	C	0.596348	0.958596	0.677351
624	C	0.581265	0.919437	0.365056
625	C	0.535947	0.911995	0.374048
626	C	0.505121	0.944856	0.361311
627	H	0.574586	0.519018	0.648932
628	H	0.972284	0.940212	0.368651
629	H	0.603989	0.896074	0.707988
630	C	0.986601	0.516826	0.327488
631	C	0.990907	0.561217	0.342127
632	C	0.958311	0.593378	0.332129
633	C	0.920882	0.580433	0.306942
634	C	0.915184	0.536325	0.625589
635	C	0.948419	0.504962	0.636027
636	H	0.517506	0.570084	0.361411
637	H	0.896677	0.603253	0.300258
638	H	0.944621	0.972923	0.625392
639	C	0.8745	0.522952	0.600895
640	H	0.854475	0.55213	0.25942
641	H	0.884044	0.507813	0.569127
642	C	0.961994	0.639442	0.349748
643	H	0.959452	0.637506	0.386082
644	H	0.933943	0.659414	0.671407
645	C	0.521113	0.871298	0.397765
646	H	0.506716	0.88108	0.429826
647	H	0.549535	0.850052	0.738804
648	C	0.645154	0.963542	0.670929
649	H	0.656245	0.934752	0.651659
650	H	0.660426	0.961533	0.3707
651	C	0.494401	0.801253	0.363203
652	C	0.496473	0.785902	0.65222
653	C	0.500172	0.74009	0.64251
654	C	0.502894	0.709069	0.678189
655	C	0.502092	0.724944	0.38926
656	H	0.493818	0.808182	0.626591
657	C	0.49702	0.770345	0.398416
658	H	0.503819	0.703195	0.415399
659	H	0.495147	0.780827	0.430828
660	N	0.499907	0.724781	0.597864
661	O	0.531886	0.740302	0.575997
662	O	0.464421	0.734723	0.578293
663	N	0.487662	0.847046	0.370554
664	H	0.456472	0.851637	0.383532
665	N	0.504352	0.662222	0.67154
666	H	0.513382	0.654426	0.639479
667	C	0.708628	0.503991	0.308996
668	C	0.726671	0.495051	0.599853
669	C	0.773083	0.490917	0.593541
670	C	0.80185	0.496748	0.630556
671	C	0.783857	0.506805	0.33945
672	H	0.70576	0.489903	0.573467
673	C	0.737786	0.510362	0.345335
674	H	0.80426	0.510664	0.366464
675	H	0.725454	0.516677	0.376492
676	N	0.791534	0.480369	0.551503
677	O	0.777863	0.443514	0.53765
678	O	0.782193	0.509431	0.522963
679	N	0.661844	0.503925	0.314429
680	H	0.652801	0.531932	0.331656
681	N	0.848431	0.491182	0.628333
682	H	0.855784	0.459044	0.619758
683	C	0.518693	0.984231	0.006258
684	C	0.564498	0.990695	0.998005
685	C	0.596348	0.958596	0.010686
686	C	0.581265	0.919437	0.698387
687	C	0.535947	0.911995	0.70738
688	C	0.505121	0.944856	0.694642
689	H	0.574586	0.519018	0.982263
690	H	0.972284	0.940212	0.701986
691	H	0.603989	0.896074	0.041322
692	C	0.986601	0.516826	0.660822
693	C	0.990907	0.561217	0.675459
694	C	0.958311	0.593378	0.665462
695	C	0.920882	0.580433	0.640273
696	C	0.915184	0.536325	0.958921
697	C	0.948419	0.504962	0.969362
698	H	0.517506	0.570084	0.694742
699	H	0.896677	0.603253	0.63359
700	H	0.944621	0.972923	0.958724
701	C	0.8745	0.522952	0.93423
702	H	0.854475	0.55213	0.592753
703	H	0.884044	0.507813	0.902459
704	C	0.961994	0.639442	0.683079
705	H	0.959452	0.637506	0.719413
706	H	0.933943	0.659414	0.004741
707	C	0.521113	0.871298	0.7311
708	H	0.506716	0.88108	0.763158
709	H	0.549535	0.850052	0.072139
710	C	0.645154	0.963542	0.004262
711	H	0.656245	0.934752	0.984991
712	H	0.660426	0.961533	0.704035
713	C	0.494401	0.801253	0.696538
714	C	0.496473	0.785902	0.985551
715	C	0.500172	0.74009	0.975844
716	C	0.502894	0.709069	0.011522
717	C	0.502092	0.724944	0.722591
718	H	0.493818	0.808182	0.959922
719	C	0.49702	0.770345	0.731747
720	H	0.503819	0.703195	0.748731
721	H	0.495147	0.780827	0.764159
722	N	0.499907	0.724781	0.931196
723	O	0.531886	0.740302	0.909332
724	O	0.464421	0.734723	0.911625
725	N	0.487662	0.847046	0.703885
726	H	0.456472	0.851637	0.716863
727	N	0.504352	0.662222	0.004873
728	H	0.513382	0.654426	0.97281
729	C	0.708628	0.503991	0.642329
730	C	0.726671	0.495051	0.933185
731	C	0.773083	0.490917	0.926876
732	C	0.80185	0.496748	0.963888
733	C	0.783857	0.506805	0.672782
734	H	0.70576	0.489903	0.906802
735	C	0.737786	0.510362	0.67867
736	H	0.80426	0.510664	0.699796
737	H	0.725454	0.516677	0.709823
738	N	0.791534	0.480369	0.884834
739	O	0.777863	0.443514	0.870982
740	O	0.782193	0.509431	0.856294
741	N	0.661844	0.503925	0.64776
742	H	0.652801	0.531932	0.664988
743	N	0.848431	0.491182	0.961668
744	H	0.855784	0.459044	0.953093
