data_C324H216N72O36_2018-02-15_10:40:06
#******************************************
#
# CIF file created by Zeo++
# Zeo++ is an open source package to
# analyze microporous materials
#
#*******************************************

_cell_length_a		29.7734   
_cell_length_b		29.7734   
_cell_length_c		30.0194   
_cell_angle_alpha		90   
_cell_angle_beta		90   
_cell_angle_gamma		120   

_symmetry_space_group_name_H-M		'P1'
_symmetry_Int_Tables_number		1
_symmetry_cell_setting		Monoclinic

loop_
_symmetry_equiv_pos_as_xyz
'+x,+y,+z'

loop_
_atom_site_label
_atom_site_type_symbol
_atom_site_fract_x
_atom_site_fract_y
_atom_site_fract_z
1	C	0.110303	0.30618	0.004915
2	C	0.14023	0.361062	0.00493
3	C	0.195247	0.388904	0.004917
4	C	0.220202	0.358977	0.004913
5	C	0.193025	0.30396	0.00491
6	C	0.138144	0.279004	0.004909
7	H	0.259667	0.377766	0.005644
8	H	0.11747	0.23954	0.005665
9	H	0.121441	0.381738	0.005671
10	C	0.388868	0.19148	0.008195
11	C	0.357031	0.136802	0.007701
12	C	0.301975	0.110338	0.008191
13	C	0.279132	0.142173	0.007729
14	C	0.307727	0.19723	0.008198
15	C	0.362406	0.220074	0.007721
16	H	0.240012	0.124789	0.005498
17	H	0.384138	0.259195	0.005483
18	H	0.374418	0.115064	0.005494
19	C	0.281643	0.226597	0.008371
20	N	0.229428	0.200866	0.334391
21	C	0.198378	0.221987	0.333145
22	C	0.220441	0.276086	0.005645
23	N	0.272421	0.301903	0.013522
24	C	0.303614	0.28082	0.015778
25	H	0.160132	0.197958	0.326241
26	O	0.353839	0.314594	0.027374
27	C	0.361871	0.319879	0.074795
28	H	0.402856	0.346908	0.080898
29	H	0.351962	0.282872	0.090385
30	H	0.339412	0.335559	0.090331
31	C	0.272609	0.054886	0.008379
32	N	0.298342	0.028404	0.334401
33	C	0.277213	0.476232	0.33311
34	C	0.22312	0.444193	0.005636
35	N	0.197302	0.470352	0.013524
36	C	0.21839	0.02263	0.015807
37	H	0.301267	0.462018	0.326309
38	O	0.184595	0.039081	0.02732
39	C	0.179233	0.041839	0.07473
40	H	0.152195	0.055796	0.080773
41	H	0.216215	0.068942	0.090355
42	H	0.16353	0.003704	0.090278
43	C	0.444319	0.217561	0.008369
44	N	0.470805	0.269783	0.334424
45	C	0.022976	0.300834	0.333182
46	C	0.055013	0.278766	0.005642
47	N	0.02885	0.226782	0.013501
48	C	0.476571	0.195587	0.015756
49	H	0.037192	0.339087	0.326308
50	O	0.460127	0.145355	0.027321
51	C	0.457384	0.137289	0.074738
52	H	0.443429	0.0963	0.080817
53	H	0.430283	0.147185	0.090347
54	H	0.495522	0.159739	0.090275
55	C	0.110303	0.30618	0.338248
56	C	0.14023	0.361062	0.338262
57	C	0.195247	0.388904	0.338252
58	C	0.220202	0.358977	0.338245
59	C	0.193025	0.30396	0.338242
60	C	0.138144	0.279004	0.338242
61	H	0.259667	0.377766	0.338978
62	H	0.11747	0.23954	0.338998
63	H	0.121441	0.381738	0.339005
64	C	0.388868	0.19148	0.341526
65	C	0.357031	0.136802	0.341033
66	C	0.301975	0.110338	0.341523
67	C	0.279132	0.142173	0.341063
68	C	0.307727	0.19723	0.34153
69	C	0.362406	0.220074	0.341053
70	H	0.240012	0.124789	0.338831
71	H	0.384138	0.259195	0.338815
72	H	0.374418	0.115064	0.338828
73	C	0.281643	0.226597	0.341703
74	N	0.229428	0.200866	0.667726
75	C	0.198378	0.221987	0.666477
76	C	0.220441	0.276086	0.338978
77	N	0.272421	0.301903	0.346856
78	C	0.303614	0.28082	0.349111
79	H	0.160132	0.197958	0.659574
80	O	0.353839	0.314594	0.360707
81	C	0.361871	0.319879	0.408127
82	H	0.402856	0.346908	0.414233
83	H	0.351962	0.282872	0.423717
84	H	0.339412	0.335559	0.423663
85	C	0.272609	0.054886	0.341713
86	N	0.298342	0.028404	0.667736
87	C	0.277213	0.476232	0.666443
88	C	0.22312	0.444193	0.338968
89	N	0.197302	0.470352	0.346856
90	C	0.21839	0.02263	0.349141
91	H	0.301267	0.462018	0.659641
92	O	0.184595	0.039081	0.360654
93	C	0.179233	0.041839	0.408063
94	H	0.152195	0.055796	0.414106
95	H	0.216215	0.068942	0.423687
96	H	0.16353	0.003704	0.42361
97	C	0.444319	0.217561	0.341703
98	N	0.470805	0.269783	0.667759
99	C	0.022976	0.300834	0.666513
100	C	0.055013	0.278766	0.338975
101	N	0.02885	0.226782	0.346833
102	C	0.476571	0.195587	0.349088
103	H	0.037192	0.339087	0.659641
104	O	0.460127	0.145355	0.360654
105	C	0.457384	0.137289	0.40807
106	H	0.443429	0.0963	0.414149
107	H	0.430283	0.147185	0.42368
108	H	0.495522	0.159739	0.423607
109	C	0.110303	0.30618	0.67158
110	C	0.14023	0.361062	0.671597
111	C	0.195247	0.388904	0.671583
112	C	0.220202	0.358977	0.67158
113	C	0.193025	0.30396	0.671577
114	C	0.138144	0.279004	0.671573
115	H	0.259667	0.377766	0.672309
116	H	0.11747	0.23954	0.672333
117	H	0.121441	0.381738	0.672336
118	C	0.388868	0.19148	0.674861
119	C	0.357031	0.136802	0.674365
120	C	0.301975	0.110338	0.674858
121	C	0.279132	0.142173	0.674395
122	C	0.307727	0.19723	0.674864
123	C	0.362406	0.220074	0.674388
124	H	0.240012	0.124789	0.672163
125	H	0.384138	0.259195	0.67215
126	H	0.374418	0.115064	0.67216
127	C	0.281643	0.226597	0.675038
128	N	0.229428	0.200866	0.001059
129	C	0.198378	0.221987	0.999811
130	C	0.220441	0.276086	0.672309
131	N	0.272421	0.301903	0.680188
132	C	0.303614	0.28082	0.682443
133	H	0.160132	0.197958	0.992906
134	O	0.353839	0.314594	0.694039
135	C	0.361871	0.319879	0.741461
136	H	0.402856	0.346908	0.747564
137	H	0.351962	0.282872	0.757051
138	H	0.339412	0.335559	0.756998
139	C	0.272609	0.054886	0.675044
140	N	0.298342	0.028404	0.001069
141	C	0.277213	0.476232	0.999777
142	C	0.22312	0.444193	0.672303
143	N	0.197302	0.470352	0.680191
144	C	0.21839	0.02263	0.682473
145	H	0.301267	0.462018	0.992976
146	O	0.184595	0.039081	0.693985
147	C	0.179233	0.041839	0.741395
148	H	0.152195	0.055796	0.747438
149	H	0.216215	0.068942	0.757021
150	H	0.16353	0.003704	0.756945
151	C	0.444319	0.217561	0.675034
152	N	0.470805	0.269783	0.001092
153	C	0.022976	0.300834	0.999849
154	C	0.055013	0.278766	0.672309
155	N	0.02885	0.226782	0.680168
156	C	0.476571	0.195587	0.682423
157	H	0.037192	0.339087	0.992976
158	O	0.460127	0.145355	0.693985
159	C	0.457384	0.137289	0.741405
160	H	0.443429	0.0963	0.747481
161	H	0.430283	0.147185	0.757011
162	H	0.495522	0.159739	0.756941
163	C	0.110302	0.806178	0.00492
164	C	0.140229	0.86106	0.004935
165	C	0.195246	0.888902	0.004924
166	C	0.220203	0.858977	0.00492
167	C	0.193026	0.80396	0.004916
168	C	0.138143	0.779003	0.004913
169	H	0.259666	0.877764	0.005652
170	H	0.117471	0.739541	0.00567
171	H	0.121442	0.881739	0.005675
172	C	0.388869	0.691481	0.008196
173	C	0.357031	0.636801	0.0077
174	C	0.301975	0.610336	0.00819
175	C	0.279132	0.642173	0.00773
176	C	0.307727	0.697229	0.008201
177	C	0.362405	0.720072	0.007724
178	H	0.240011	0.624786	0.005499
179	H	0.384138	0.759196	0.005488
180	H	0.374418	0.615063	0.005492
181	C	0.281643	0.726595	0.008376
182	N	0.229429	0.700867	0.334394
183	C	0.198379	0.721988	0.333145
184	C	0.220441	0.776086	0.005651
185	N	0.272419	0.8019	0.013531
186	C	0.303613	0.780818	0.015786
187	H	0.160132	0.697958	0.326242
188	O	0.353837	0.81459	0.027386
189	C	0.361865	0.819869	0.074808
190	H	0.402849	0.846896	0.080914
191	H	0.351956	0.782862	0.090394
192	H	0.339406	0.835549	0.090345
193	C	0.27261	0.554888	0.008376
194	N	0.298341	0.528403	0.334394
195	C	0.277215	0.976234	0.333118
196	C	0.223119	0.944191	0.005642
197	N	0.197303	0.970354	0.013527
198	C	0.21839	0.522628	0.015806
199	H	0.301268	0.962016	0.326319
200	O	0.184596	0.53908	0.027323
201	C	0.17924	0.541837	0.074734
202	H	0.152202	0.555795	0.080781
203	H	0.216224	0.568943	0.090357
204	H	0.163538	0.503702	0.090282
205	C	0.44432	0.717563	0.008371
206	N	0.470805	0.769784	0.334428
207	C	0.022976	0.800834	0.333185
208	C	0.055014	0.778766	0.005645
209	N	0.02885	0.726782	0.013502
210	C	0.476571	0.695585	0.015756
211	H	0.037191	0.839086	0.326315
212	O	0.460125	0.645353	0.027319
213	C	0.457383	0.637286	0.074736
214	H	0.443428	0.596296	0.080812
215	H	0.430284	0.64718	0.090345
216	H	0.495522	0.659734	0.090273
217	C	0.110302	0.806178	0.338252
218	C	0.140229	0.86106	0.338268
219	C	0.195246	0.888902	0.338255
220	C	0.220203	0.858977	0.338252
221	C	0.193026	0.80396	0.338248
222	C	0.138143	0.779003	0.338245
223	H	0.259666	0.877764	0.338985
224	H	0.117471	0.739541	0.339001
225	H	0.121442	0.881739	0.339008
226	C	0.388869	0.691481	0.34153
227	C	0.357031	0.636801	0.341033
228	C	0.301975	0.610336	0.341523
229	C	0.279132	0.642173	0.341063
230	C	0.307727	0.697229	0.341533
231	C	0.362405	0.720072	0.341057
232	H	0.240011	0.624786	0.338831
233	H	0.384138	0.759196	0.338821
234	H	0.374418	0.615063	0.338825
235	C	0.281643	0.726595	0.341709
236	N	0.229429	0.700867	0.667726
237	C	0.198379	0.721988	0.66648
238	C	0.220441	0.776086	0.338985
239	N	0.272419	0.8019	0.346863
240	C	0.303613	0.780818	0.349118
241	H	0.160132	0.697958	0.659574
242	O	0.353837	0.81459	0.360717
243	C	0.361865	0.819869	0.40814
244	H	0.402849	0.846896	0.414246
245	H	0.351956	0.782862	0.423727
246	H	0.339406	0.835549	0.42368
247	C	0.27261	0.554888	0.341709
248	N	0.298341	0.528403	0.667729
249	C	0.277215	0.976234	0.66645
250	C	0.223119	0.944191	0.338975
251	N	0.197303	0.970354	0.346859
252	C	0.21839	0.522628	0.349138
253	H	0.301268	0.962016	0.659651
254	O	0.184596	0.53908	0.360657
255	C	0.17924	0.541837	0.408067
256	H	0.152202	0.555795	0.414113
257	H	0.216224	0.568943	0.42369
258	H	0.163538	0.503702	0.423617
259	C	0.44432	0.717563	0.341703
260	N	0.470805	0.769784	0.667762
261	C	0.022976	0.800834	0.66652
262	C	0.055014	0.778766	0.338978
263	N	0.02885	0.726782	0.346836
264	C	0.476571	0.695585	0.349088
265	H	0.037191	0.839086	0.659648
266	O	0.460125	0.645353	0.360651
267	C	0.457383	0.637286	0.40807
268	H	0.443428	0.596296	0.414146
269	H	0.430284	0.64718	0.423677
270	H	0.495522	0.659734	0.423607
271	C	0.110302	0.806178	0.671587
272	C	0.140229	0.86106	0.6716
273	C	0.195246	0.888902	0.67159
274	C	0.220203	0.858977	0.671587
275	C	0.193026	0.80396	0.67158
276	C	0.138143	0.779003	0.67158
277	H	0.259666	0.877764	0.672319
278	H	0.117471	0.739541	0.672336
279	H	0.121442	0.881739	0.672339
280	C	0.388869	0.691481	0.674861
281	C	0.357031	0.636801	0.674365
282	C	0.301975	0.610336	0.674854
283	C	0.279132	0.642173	0.674395
284	C	0.307727	0.697229	0.674868
285	C	0.362405	0.720072	0.674391
286	H	0.240011	0.624786	0.672163
287	H	0.384138	0.759196	0.672153
288	H	0.374418	0.615063	0.672156
289	C	0.281643	0.726595	0.675041
290	N	0.229429	0.700867	0.001061
291	C	0.198379	0.721988	0.999814
292	C	0.220441	0.776086	0.672316
293	N	0.272419	0.8019	0.680198
294	C	0.303613	0.780818	0.682453
295	H	0.160132	0.697958	0.992909
296	O	0.353837	0.81459	0.694052
297	C	0.361865	0.819869	0.741475
298	H	0.402849	0.846896	0.747581
299	H	0.351956	0.782862	0.757061
300	H	0.339406	0.835549	0.757011
301	C	0.27261	0.554888	0.675041
302	N	0.298341	0.528403	0.001063
303	C	0.277215	0.976234	0.999785
304	C	0.223119	0.944191	0.672306
305	N	0.197303	0.970354	0.680191
306	C	0.21839	0.522628	0.682473
307	H	0.301268	0.962016	0.992986
308	O	0.184596	0.53908	0.693989
309	C	0.17924	0.541837	0.741402
310	H	0.152202	0.555795	0.747448
311	H	0.216224	0.568943	0.757021
312	H	0.163538	0.503702	0.756948
313	C	0.44432	0.717563	0.675038
314	N	0.470805	0.769784	0.001096
315	C	0.022976	0.800834	0.999854
316	C	0.055014	0.778766	0.672313
317	N	0.02885	0.726782	0.680168
318	C	0.476571	0.695585	0.682423
319	H	0.037191	0.839086	0.992982
320	O	0.460125	0.645353	0.693985
321	C	0.457383	0.637286	0.741402
322	H	0.443428	0.596296	0.747478
323	H	0.430284	0.64718	0.757011
324	H	0.495522	0.659734	0.756938
325	C	0.610304	0.30618	0.004915
326	C	0.64023	0.361062	0.00493
327	C	0.695245	0.388904	0.004917
328	C	0.720203	0.358977	0.004913
329	C	0.693023	0.30396	0.00491
330	C	0.638142	0.279004	0.004909
331	H	0.759664	0.377766	0.005644
332	H	0.617469	0.23954	0.005665
333	H	0.621441	0.381738	0.005671
334	C	0.888867	0.19148	0.008195
335	C	0.857031	0.136802	0.007701
336	C	0.801976	0.110338	0.008191
337	C	0.779131	0.142173	0.007729
338	C	0.807728	0.19723	0.008198
339	C	0.862406	0.220074	0.007721
340	H	0.740009	0.124789	0.005498
341	H	0.884137	0.259195	0.005483
342	H	0.874416	0.115064	0.005494
343	C	0.781643	0.226597	0.008371
344	N	0.729427	0.200866	0.334391
345	C	0.698377	0.221987	0.333145
346	C	0.720439	0.276086	0.005645
347	N	0.772419	0.301903	0.013522
348	C	0.803613	0.28082	0.015778
349	H	0.660131	0.197958	0.326241
350	O	0.853838	0.314594	0.027374
351	C	0.861872	0.319879	0.074795
352	H	0.902857	0.346908	0.080898
353	H	0.851963	0.282872	0.090385
354	H	0.839413	0.335559	0.090331
355	C	0.772608	0.054886	0.008379
356	N	0.798341	0.028404	0.334401
357	C	0.777211	0.476232	0.33311
358	C	0.723118	0.444193	0.005636
359	N	0.697303	0.470352	0.013524
360	C	0.718389	0.02263	0.015807
361	H	0.801266	0.462018	0.326309
362	O	0.684594	0.039081	0.02732
363	C	0.679232	0.041839	0.07473
364	H	0.652194	0.055796	0.080773
365	H	0.716214	0.068942	0.090355
366	H	0.66353	0.003704	0.090278
367	C	0.944318	0.217561	0.008369
368	N	0.970805	0.269783	0.334424
369	C	0.522974	0.300834	0.333182
370	C	0.555012	0.278766	0.005642
371	N	0.528849	0.226782	0.013501
372	C	0.976571	0.195587	0.015756
373	H	0.53719	0.339087	0.326308
374	O	0.960124	0.145355	0.027321
375	C	0.957384	0.137289	0.074738
376	H	0.943429	0.0963	0.080817
377	H	0.930283	0.147185	0.090347
378	H	0.995522	0.159739	0.090275
379	C	0.610304	0.30618	0.338248
380	C	0.64023	0.361062	0.338262
381	C	0.695245	0.388904	0.338252
382	C	0.720203	0.358977	0.338245
383	C	0.693023	0.30396	0.338242
384	C	0.638142	0.279004	0.338242
385	H	0.759664	0.377766	0.338978
386	H	0.617469	0.23954	0.338998
387	H	0.621441	0.381738	0.339005
388	C	0.888867	0.19148	0.341526
389	C	0.857031	0.136802	0.341033
390	C	0.801976	0.110338	0.341523
391	C	0.779131	0.142173	0.341063
392	C	0.807728	0.19723	0.34153
393	C	0.862406	0.220074	0.341053
394	H	0.740009	0.124789	0.338831
395	H	0.884137	0.259195	0.338815
396	H	0.874416	0.115064	0.338828
397	C	0.781643	0.226597	0.341703
398	N	0.729427	0.200866	0.667726
399	C	0.698377	0.221987	0.666477
400	C	0.720439	0.276086	0.338978
401	N	0.772419	0.301903	0.346856
402	C	0.803613	0.28082	0.349111
403	H	0.660131	0.197958	0.659574
404	O	0.853838	0.314594	0.360707
405	C	0.861872	0.319879	0.408127
406	H	0.902857	0.346908	0.414233
407	H	0.851963	0.282872	0.423717
408	H	0.839413	0.335559	0.423663
409	C	0.772608	0.054886	0.341713
410	N	0.798341	0.028404	0.667736
411	C	0.777211	0.476232	0.666443
412	C	0.723118	0.444193	0.338968
413	N	0.697303	0.470352	0.346856
414	C	0.718389	0.02263	0.349141
415	H	0.801266	0.462018	0.659641
416	O	0.684594	0.039081	0.360654
417	C	0.679232	0.041839	0.408063
418	H	0.652194	0.055796	0.414106
419	H	0.716214	0.068942	0.423687
420	H	0.66353	0.003704	0.42361
421	C	0.944318	0.217561	0.341703
422	N	0.970805	0.269783	0.667759
423	C	0.522974	0.300834	0.666513
424	C	0.555012	0.278766	0.338975
425	N	0.528849	0.226782	0.346833
426	C	0.976571	0.195587	0.349088
427	H	0.53719	0.339087	0.659641
428	O	0.960124	0.145355	0.360654
429	C	0.957384	0.137289	0.40807
430	H	0.943429	0.0963	0.414149
431	H	0.930283	0.147185	0.42368
432	H	0.995522	0.159739	0.423607
433	C	0.610304	0.30618	0.67158
434	C	0.64023	0.361062	0.671597
435	C	0.695245	0.388904	0.671583
436	C	0.720203	0.358977	0.67158
437	C	0.693023	0.30396	0.671577
438	C	0.638142	0.279004	0.671573
439	H	0.759664	0.377766	0.672309
440	H	0.617469	0.23954	0.672333
441	H	0.621441	0.381738	0.672336
442	C	0.888867	0.19148	0.674861
443	C	0.857031	0.136802	0.674365
444	C	0.801976	0.110338	0.674858
445	C	0.779131	0.142173	0.674395
446	C	0.807728	0.19723	0.674864
447	C	0.862406	0.220074	0.674388
448	H	0.740009	0.124789	0.672163
449	H	0.884137	0.259195	0.67215
450	H	0.874416	0.115064	0.67216
451	C	0.781643	0.226597	0.675038
452	N	0.729427	0.200866	0.001059
453	C	0.698377	0.221987	0.999811
454	C	0.720439	0.276086	0.672309
455	N	0.772419	0.301903	0.680188
456	C	0.803613	0.28082	0.682443
457	H	0.660131	0.197958	0.992906
458	O	0.853838	0.314594	0.694039
459	C	0.861872	0.319879	0.741461
460	H	0.902857	0.346908	0.747564
461	H	0.851963	0.282872	0.757051
462	H	0.839413	0.335559	0.756998
463	C	0.772608	0.054886	0.675044
464	N	0.798341	0.028404	0.001069
465	C	0.777211	0.476232	0.999777
466	C	0.723118	0.444193	0.672303
467	N	0.697303	0.470352	0.680191
468	C	0.718389	0.02263	0.682473
469	H	0.801266	0.462018	0.992976
470	O	0.684594	0.039081	0.693985
471	C	0.679232	0.041839	0.741395
472	H	0.652194	0.055796	0.747438
473	H	0.716214	0.068942	0.757021
474	H	0.66353	0.003704	0.756945
475	C	0.944318	0.217561	0.675034
476	N	0.970805	0.269783	0.001092
477	C	0.522974	0.300834	0.999849
478	C	0.555012	0.278766	0.672309
479	N	0.528849	0.226782	0.680168
480	C	0.976571	0.195587	0.682423
481	H	0.53719	0.339087	0.992976
482	O	0.960124	0.145355	0.693985
483	C	0.957384	0.137289	0.741405
484	H	0.943429	0.0963	0.747481
485	H	0.930283	0.147185	0.757011
486	H	0.995522	0.159739	0.756941
487	C	0.610302	0.806178	0.00492
488	C	0.640229	0.86106	0.004935
489	C	0.695246	0.888902	0.004924
490	C	0.720202	0.858977	0.00492
491	C	0.693025	0.80396	0.004916
492	C	0.638143	0.779003	0.004913
493	H	0.759666	0.877764	0.005652
494	H	0.61747	0.739541	0.00567
495	H	0.621441	0.881739	0.005675
496	C	0.88887	0.691481	0.008196
497	C	0.857029	0.636801	0.0077
498	C	0.801974	0.610336	0.00819
499	C	0.779133	0.642173	0.00773
500	C	0.807726	0.697229	0.008201
501	C	0.862404	0.720072	0.007724
502	H	0.74001	0.624786	0.005499
503	H	0.884139	0.759196	0.005488
504	H	0.874417	0.615063	0.005492
505	C	0.781641	0.726595	0.008376
506	N	0.729429	0.700867	0.334394
507	C	0.698379	0.721988	0.333145
508	C	0.720441	0.776086	0.005651
509	N	0.772419	0.8019	0.013531
510	C	0.803613	0.780818	0.015786
511	H	0.660132	0.697958	0.326242
512	O	0.853835	0.81459	0.027386
513	C	0.861865	0.819869	0.074808
514	H	0.902849	0.846896	0.080914
515	H	0.851956	0.782862	0.090394
516	H	0.839406	0.835549	0.090345
517	C	0.772611	0.554888	0.008376
518	N	0.798339	0.528403	0.334394
519	C	0.777215	0.976234	0.333118
520	C	0.723119	0.944191	0.005642
521	N	0.697303	0.970354	0.013527
522	C	0.71839	0.522628	0.015806
523	H	0.801267	0.962016	0.326319
524	O	0.684595	0.53908	0.027323
525	C	0.679239	0.541837	0.074734
526	H	0.652202	0.555795	0.080781
527	H	0.716222	0.568943	0.090357
528	H	0.663537	0.503702	0.090282
529	C	0.944321	0.717563	0.008371
530	N	0.970804	0.769784	0.334428
531	C	0.522975	0.800834	0.333185
532	C	0.555014	0.778766	0.005645
533	N	0.528849	0.726782	0.013502
534	C	0.976572	0.695585	0.015756
535	H	0.53719	0.839086	0.326315
536	O	0.960125	0.645353	0.027319
537	C	0.957381	0.637286	0.074736
538	H	0.943429	0.596296	0.080812
539	H	0.930282	0.64718	0.090345
540	H	0.995521	0.659734	0.090273
541	C	0.610302	0.806178	0.338252
542	C	0.640229	0.86106	0.338268
543	C	0.695246	0.888902	0.338255
544	C	0.720202	0.858977	0.338252
545	C	0.693025	0.80396	0.338248
546	C	0.638143	0.779003	0.338245
547	H	0.759666	0.877764	0.338985
548	H	0.61747	0.739541	0.339001
549	H	0.621441	0.881739	0.339008
550	C	0.88887	0.691481	0.34153
551	C	0.857029	0.636801	0.341033
552	C	0.801974	0.610336	0.341523
553	C	0.779133	0.642173	0.341063
554	C	0.807726	0.697229	0.341533
555	C	0.862404	0.720072	0.341057
556	H	0.74001	0.624786	0.338831
557	H	0.884139	0.759196	0.338821
558	H	0.874417	0.615063	0.338825
559	C	0.781641	0.726595	0.341709
560	N	0.729429	0.700867	0.667726
561	C	0.698379	0.721988	0.66648
562	C	0.720441	0.776086	0.338985
563	N	0.772419	0.8019	0.346863
564	C	0.803613	0.780818	0.349118
565	H	0.660132	0.697958	0.659574
566	O	0.853835	0.81459	0.360717
567	C	0.861865	0.819869	0.40814
568	H	0.902849	0.846896	0.414246
569	H	0.851956	0.782862	0.423727
570	H	0.839406	0.835549	0.42368
571	C	0.772611	0.554888	0.341709
572	N	0.798339	0.528403	0.667729
573	C	0.777215	0.976234	0.66645
574	C	0.723119	0.944191	0.338975
575	N	0.697303	0.970354	0.346859
576	C	0.71839	0.522628	0.349138
577	H	0.801267	0.962016	0.659651
578	O	0.684595	0.53908	0.360657
579	C	0.679239	0.541837	0.408067
580	H	0.652202	0.555795	0.414113
581	H	0.716222	0.568943	0.42369
582	H	0.663537	0.503702	0.423617
583	C	0.944321	0.717563	0.341703
584	N	0.970804	0.769784	0.667762
585	C	0.522975	0.800834	0.66652
586	C	0.555014	0.778766	0.338978
587	N	0.528849	0.726782	0.346836
588	C	0.976572	0.695585	0.349088
589	H	0.53719	0.839086	0.659648
590	O	0.960125	0.645353	0.360651
591	C	0.957381	0.637286	0.40807
592	H	0.943429	0.596296	0.414146
593	H	0.930282	0.64718	0.423677
594	H	0.995521	0.659734	0.423607
595	C	0.610302	0.806178	0.671587
596	C	0.640229	0.86106	0.6716
597	C	0.695246	0.888902	0.67159
598	C	0.720202	0.858977	0.671587
599	C	0.693025	0.80396	0.67158
600	C	0.638143	0.779003	0.67158
601	H	0.759666	0.877764	0.672319
602	H	0.61747	0.739541	0.672336
603	H	0.621441	0.881739	0.672339
604	C	0.88887	0.691481	0.674861
605	C	0.857029	0.636801	0.674365
606	C	0.801974	0.610336	0.674854
607	C	0.779133	0.642173	0.674395
608	C	0.807726	0.697229	0.674868
609	C	0.862404	0.720072	0.674391
610	H	0.74001	0.624786	0.672163
611	H	0.884139	0.759196	0.672153
612	H	0.874417	0.615063	0.672156
613	C	0.781641	0.726595	0.675041
614	N	0.729429	0.700867	0.001061
615	C	0.698379	0.721988	0.999814
616	C	0.720441	0.776086	0.672316
617	N	0.772419	0.8019	0.680198
618	C	0.803613	0.780818	0.682453
619	H	0.660132	0.697958	0.992909
620	O	0.853835	0.81459	0.694052
621	C	0.861865	0.819869	0.741475
622	H	0.902849	0.846896	0.747581
623	H	0.851956	0.782862	0.757061
624	H	0.839406	0.835549	0.757011
625	C	0.772611	0.554888	0.675041
626	N	0.798339	0.528403	0.001063
627	C	0.777215	0.976234	0.999785
628	C	0.723119	0.944191	0.672306
629	N	0.697303	0.970354	0.680191
630	C	0.71839	0.522628	0.682473
631	H	0.801267	0.962016	0.992986
632	O	0.684595	0.53908	0.693989
633	C	0.679239	0.541837	0.741402
634	H	0.652202	0.555795	0.747448
635	H	0.716222	0.568943	0.757021
636	H	0.663537	0.503702	0.756948
637	C	0.944321	0.717563	0.675038
638	N	0.970804	0.769784	0.001096
639	C	0.522975	0.800834	0.999854
640	C	0.555014	0.778766	0.672313
641	N	0.528849	0.726782	0.680168
642	C	0.976572	0.695585	0.682423
643	H	0.53719	0.839086	0.992982
644	O	0.960125	0.645353	0.693985
645	C	0.957381	0.637286	0.741402
646	H	0.943429	0.596296	0.747478
647	H	0.930282	0.64718	0.757011
648	H	0.995521	0.659734	0.756938
