data_C324H216N144_2018-02-15_10:38:20
#******************************************
#
# CIF file created by Zeo++
# Zeo++ is an open source package to
# analyze microporous materials
#
#*******************************************

_cell_length_a		29.1466   
_cell_length_b		29.1466   
_cell_length_c		29.8046   
_cell_angle_alpha		90   
_cell_angle_beta		90   
_cell_angle_gamma		120   

_symmetry_space_group_name_H-M		'P1'
_symmetry_Int_Tables_number		1
_symmetry_cell_setting		Monoclinic

loop_
_symmetry_equiv_pos_as_xyz
'+x,+y,+z'

loop_
_atom_site_label
_atom_site_type_symbol
_atom_site_fract_x
_atom_site_fract_y
_atom_site_fract_z
1	C	0.028873	0.309011	0.031687
2	C	0.030701	0.228321	0.354375
3	H	0.048995	0.206583	0.350181
4	C	0.049516	0.36572	0.041985
5	C	0.022121	0.381368	0.078281
6	H	0.023562	0.419215	0.07345
7	C	0.028873	0.309011	0.365021
8	C	0.030701	0.228321	0.687705
9	H	0.048995	0.206583	0.683515
10	C	0.049516	0.36572	0.375318
11	C	0.022121	0.381368	0.411614
12	H	0.023562	0.419215	0.406783
13	C	0.028873	0.309011	0.698355
14	C	0.030701	0.228321	0.021039
15	H	0.048995	0.206583	0.016848
16	C	0.049516	0.36572	0.708652
17	C	0.022121	0.381368	0.744948
18	H	0.023562	0.419215	0.740117
19	C	0.028873	0.809011	0.031687
20	C	0.0307	0.728319	0.354375
21	H	0.048995	0.706581	0.350181
22	C	0.049515	0.865719	0.041985
23	C	0.02212	0.881368	0.078281
24	H	0.023563	0.919214	0.07345
25	C	0.028873	0.809011	0.365021
26	C	0.0307	0.728319	0.687705
27	H	0.048995	0.706581	0.683515
28	C	0.049515	0.865719	0.375318
29	C	0.02212	0.881368	0.411614
30	H	0.023563	0.919214	0.406783
31	C	0.028873	0.809011	0.698355
32	C	0.0307	0.728319	0.021039
33	H	0.048995	0.706581	0.016848
34	C	0.049515	0.865719	0.708652
35	C	0.02212	0.881368	0.744948
36	H	0.023563	0.919214	0.740117
37	C	0.060199	0.284188	0.026534
38	C	0.075569	0.385647	0.088319
39	H	0.067514	0.394313	0.014769
40	H	0.073851	0.356245	0.112054
41	C	0.060199	0.284188	0.359867
42	C	0.075569	0.385647	0.421653
43	H	0.067514	0.394313	0.348104
44	H	0.073851	0.356245	0.445387
45	C	0.060199	0.284188	0.693201
46	C	0.075569	0.385647	0.754987
47	H	0.067514	0.394313	0.681435
48	H	0.073851	0.356245	0.778721
49	C	0.060199	0.784187	0.026534
50	C	0.075569	0.885646	0.088319
51	H	0.067514	0.894315	0.014769
52	H	0.073852	0.856247	0.112054
53	C	0.060199	0.784187	0.359867
54	C	0.075569	0.885646	0.421653
55	H	0.067514	0.894315	0.348104
56	H	0.073852	0.856247	0.445387
57	C	0.060199	0.784187	0.693201
58	C	0.075569	0.885646	0.754987
59	H	0.067514	0.894315	0.681435
60	H	0.073852	0.856247	0.778721
61	H	0.082098	0.184373	0.089956
62	H	0.08898	0.105984	0.073434
63	H	0.082098	0.184373	0.42329
64	H	0.08898	0.105984	0.406769
65	H	0.082098	0.184373	0.756624
66	H	0.08898	0.105984	0.7401
67	H	0.082098	0.684372	0.089956
68	H	0.088979	0.605982	0.073434
69	H	0.082098	0.684372	0.42329
70	H	0.088979	0.605982	0.406769
71	H	0.082098	0.684372	0.756624
72	H	0.088979	0.605982	0.7401
73	C	0.200976	0.391629	0.026425
74	N	0.146985	0.364725	0.026254
75	C	0.116564	0.310986	0.026428
76	N	0.143469	0.2839	0.026251
77	C	0.197207	0.307217	0.026422
78	N	0.224294	0.361209	0.026249
79	C	0.311643	0.11556	0.022231
80	N	0.365527	0.143832	0.022296
81	C	0.392633	0.197723	0.022233
82	N	0.364361	0.223333	0.022292
83	C	0.310471	0.196551	0.022226
84	N	0.28486	0.142667	0.022291
85	C	0.199182	0.221501	0.031673
86	C	0.224005	0.27765	0.026521
87	C	0.27987	0.304017	0.354348
88	N	0.306765	0.277227	0.353076
89	C	0.28204	0.223749	0.0232
90	N	0.228791	0.197386	0.029039
91	H	0.301611	0.344055	0.350191
92	C	0.142474	0.185434	0.041973
93	C	0.126826	0.142388	0.078266
94	C	0.122551	0.191558	0.088309
95	H	0.113879	0.174843	0.014758
96	H	0.151955	0.219239	0.112044
97	H	0.158497	0.140636	0.096308
98	C	0.28669	0.479318	0.031686
99	C	0.230542	0.447993	0.026532
100	C	0.204174	0.477492	0.354368
101	N	0.230966	0.031177	0.353083
102	C	0.284445	0.059931	0.02321
103	N	0.310807	0.033045	0.029052
104	H	0.164141	0.459197	0.350177
105	C	0.322757	0.458678	0.041985
106	C	0.365799	0.486073	0.078282
107	C	0.31663	0.432626	0.088319
108	H	0.333353	0.44068	0.014769
109	H	0.323814	0.399355	0.089962
110	H	0.288944	0.434341	0.112053
111	H	0.367547	0.019492	0.096328
112	H	0.402204	0.484631	0.073452
113	N	0.477016	0.20143	0.353086
114	C	0.448262	0.226155	0.023209
115	N	0.475148	0.279402	0.029052
116	H	0.108837	0.426101	0.089961
117	H	0.488701	0.349697	0.096327
118	C	0.200976	0.391629	0.35976
119	N	0.146985	0.364725	0.359588
120	C	0.116564	0.310986	0.359763
121	N	0.143469	0.2839	0.359585
122	C	0.197207	0.307217	0.359756
123	N	0.224294	0.361209	0.359582
124	C	0.311643	0.11556	0.355566
125	N	0.365527	0.143832	0.355629
126	C	0.392633	0.197723	0.355566
127	N	0.364361	0.223333	0.355626
128	C	0.310471	0.196551	0.355559
129	N	0.28486	0.142667	0.355626
130	C	0.199182	0.221501	0.365007
131	C	0.224005	0.27765	0.359854
132	C	0.27987	0.304017	0.687682
133	N	0.306765	0.277227	0.68641
134	C	0.28204	0.223749	0.356535
135	N	0.228791	0.197386	0.362373
136	H	0.301611	0.344055	0.683525
137	C	0.142474	0.185434	0.375308
138	C	0.126826	0.142388	0.411601
139	C	0.122551	0.191558	0.421643
140	H	0.113879	0.174843	0.348094
141	H	0.151955	0.219239	0.445377
142	H	0.158497	0.140636	0.429641
143	C	0.28669	0.479318	0.365021
144	C	0.230542	0.447993	0.359867
145	C	0.204174	0.477492	0.687702
146	N	0.230966	0.031177	0.686417
147	C	0.284445	0.059931	0.356542
148	N	0.310807	0.033045	0.362387
149	H	0.164141	0.459197	0.683508
150	C	0.322757	0.458678	0.375318
151	C	0.365799	0.486073	0.411617
152	C	0.31663	0.432626	0.421653
153	H	0.333353	0.44068	0.348104
154	H	0.323814	0.399355	0.423297
155	H	0.288944	0.434341	0.445387
156	H	0.367547	0.019492	0.429662
157	H	0.402204	0.484631	0.406786
158	N	0.477016	0.20143	0.68642
159	C	0.448262	0.226155	0.356542
160	N	0.475148	0.279402	0.362387
161	H	0.108837	0.426101	0.423293
162	H	0.488701	0.349697	0.429662
163	C	0.200976	0.391629	0.693094
164	N	0.146985	0.364725	0.692923
165	C	0.116564	0.310986	0.693097
166	N	0.143469	0.2839	0.692919
167	C	0.197207	0.307217	0.69309
168	N	0.224294	0.361209	0.692916
169	C	0.311643	0.11556	0.688896
170	N	0.365527	0.143832	0.688964
171	C	0.392633	0.197723	0.6889
172	N	0.364361	0.223333	0.68896
173	C	0.310471	0.196551	0.688893
174	N	0.28486	0.142667	0.688957
175	C	0.199182	0.221501	0.698341
176	C	0.224005	0.27765	0.693188
177	C	0.27987	0.304017	0.021014
178	N	0.306765	0.277227	0.019744
179	C	0.28204	0.223749	0.689866
180	N	0.228791	0.197386	0.695704
181	H	0.301611	0.344055	0.016858
182	C	0.142474	0.185434	0.708638
183	C	0.126826	0.142388	0.744935
184	C	0.122551	0.191558	0.754977
185	H	0.113879	0.174843	0.681424
186	H	0.151955	0.219239	0.778711
187	H	0.158497	0.140636	0.762976
188	C	0.28669	0.479318	0.698355
189	C	0.230542	0.447993	0.693201
190	C	0.204174	0.477492	0.021036
191	N	0.230966	0.031177	0.01975
192	C	0.284445	0.059931	0.689876
193	N	0.310807	0.033045	0.695721
194	H	0.164141	0.459197	0.016843
195	C	0.322757	0.458678	0.708652
196	C	0.365799	0.486073	0.744948
197	C	0.31663	0.432626	0.754987
198	H	0.333353	0.44068	0.681438
199	H	0.323814	0.399355	0.756631
200	H	0.288944	0.434341	0.778721
201	H	0.367547	0.019492	0.762996
202	H	0.402204	0.484631	0.74012
203	N	0.477016	0.20143	0.019753
204	C	0.448262	0.226155	0.689876
205	N	0.475148	0.279402	0.695721
206	H	0.108837	0.426101	0.756628
207	H	0.488701	0.349697	0.762996
208	C	0.200976	0.891629	0.026425
209	N	0.146985	0.864725	0.026254
210	C	0.116563	0.810984	0.026428
211	N	0.143468	0.783898	0.026251
212	C	0.197207	0.807217	0.026422
213	N	0.224293	0.861207	0.026249
214	C	0.311644	0.615561	0.022231
215	N	0.365527	0.643832	0.022296
216	C	0.392634	0.697723	0.022233
217	N	0.36436	0.723331	0.022292
218	C	0.310471	0.69655	0.022226
219	N	0.28486	0.642667	0.022291
220	C	0.199183	0.721501	0.031673
221	C	0.224005	0.77765	0.026521
222	C	0.27987	0.804015	0.354348
223	N	0.306765	0.777226	0.353076
224	C	0.28204	0.723747	0.0232
225	N	0.228792	0.697386	0.029039
226	H	0.30161	0.844052	0.350191
227	C	0.142474	0.685434	0.041973
228	C	0.126826	0.642386	0.078266
229	C	0.122552	0.691559	0.088309
230	H	0.113878	0.67484	0.014758
231	H	0.151955	0.719239	0.112044
232	H	0.158497	0.640635	0.096308
233	C	0.286692	0.979321	0.031686
234	C	0.230544	0.947996	0.026532
235	C	0.204173	0.97749	0.354368
236	N	0.230967	0.531177	0.353083
237	C	0.284445	0.559931	0.02321
238	N	0.310806	0.533043	0.029052
239	H	0.164141	0.959195	0.350177
240	C	0.322757	0.958676	0.041985
241	C	0.365799	0.986072	0.078282
242	C	0.316629	0.932624	0.088319
243	H	0.333353	0.940678	0.014769
244	H	0.323816	0.899358	0.089962
245	H	0.288943	0.93434	0.112053
246	H	0.367547	0.51949	0.096328
247	H	0.402203	0.984629	0.073452
248	N	0.477017	0.701431	0.353086
249	C	0.448263	0.726156	0.023209
250	N	0.475148	0.779401	0.029052
251	H	0.108837	0.926099	0.089961
252	H	0.488701	0.849698	0.096327
253	C	0.200976	0.891629	0.35976
254	N	0.146985	0.864725	0.359588
255	C	0.116563	0.810984	0.359763
256	N	0.143468	0.783898	0.359585
257	C	0.197207	0.807217	0.359756
258	N	0.224293	0.861207	0.359582
259	C	0.311644	0.615561	0.355566
260	N	0.365527	0.643832	0.355629
261	C	0.392634	0.697723	0.355566
262	N	0.36436	0.723331	0.355626
263	C	0.310471	0.69655	0.355559
264	N	0.28486	0.642667	0.355626
265	C	0.199183	0.721501	0.365007
266	C	0.224005	0.77765	0.359854
267	C	0.27987	0.804015	0.687682
268	N	0.306765	0.777226	0.68641
269	C	0.28204	0.723747	0.356535
270	N	0.228792	0.697386	0.362373
271	H	0.30161	0.844052	0.683525
272	C	0.142474	0.685434	0.375308
273	C	0.126826	0.642386	0.411601
274	C	0.122552	0.691559	0.421643
275	H	0.113878	0.67484	0.348094
276	H	0.151955	0.719239	0.445377
277	H	0.158497	0.640635	0.429641
278	C	0.286692	0.979321	0.365021
279	C	0.230544	0.947996	0.359867
280	C	0.204173	0.97749	0.687702
281	N	0.230967	0.531177	0.686417
282	C	0.284445	0.559931	0.356542
283	N	0.310806	0.533043	0.362387
284	H	0.164141	0.959195	0.683508
285	C	0.322757	0.958676	0.375318
286	C	0.365799	0.986072	0.411617
287	C	0.316629	0.932624	0.421653
288	H	0.333353	0.940678	0.348104
289	H	0.323816	0.899358	0.423297
290	H	0.288943	0.93434	0.445387
291	H	0.367547	0.51949	0.429662
292	H	0.402203	0.984629	0.406786
293	N	0.477017	0.701431	0.68642
294	C	0.448263	0.726156	0.356542
295	N	0.475148	0.779401	0.362387
296	H	0.108837	0.926099	0.423293
297	H	0.488701	0.849698	0.429662
298	C	0.200976	0.891629	0.693094
299	N	0.146985	0.864725	0.692923
300	C	0.116563	0.810984	0.693097
301	N	0.143468	0.783898	0.692919
302	C	0.197207	0.807217	0.69309
303	N	0.224293	0.861207	0.692916
304	C	0.311644	0.615561	0.688896
305	N	0.365527	0.643832	0.688964
306	C	0.392634	0.697723	0.6889
307	N	0.36436	0.723331	0.68896
308	C	0.310471	0.69655	0.688893
309	N	0.28486	0.642667	0.688957
310	C	0.199183	0.721501	0.698341
311	C	0.224005	0.77765	0.693188
312	C	0.27987	0.804015	0.021014
313	N	0.306765	0.777226	0.019744
314	C	0.28204	0.723747	0.689866
315	N	0.228792	0.697386	0.695704
316	H	0.30161	0.844052	0.016858
317	C	0.142474	0.685434	0.708638
318	C	0.126826	0.642386	0.744935
319	C	0.122552	0.691559	0.754977
320	H	0.113878	0.67484	0.681424
321	H	0.151955	0.719239	0.778711
322	H	0.158497	0.640635	0.762976
323	C	0.286692	0.979321	0.698355
324	C	0.230544	0.947996	0.693201
325	C	0.204173	0.97749	0.021036
326	N	0.230967	0.531177	0.01975
327	C	0.284445	0.559931	0.689876
328	N	0.310806	0.533043	0.695721
329	H	0.164141	0.959195	0.016843
330	C	0.322757	0.958676	0.708652
331	C	0.365799	0.986072	0.744948
332	C	0.316629	0.932624	0.754987
333	H	0.333353	0.940678	0.681438
334	H	0.323816	0.899358	0.756631
335	H	0.288943	0.93434	0.778721
336	H	0.367547	0.51949	0.762996
337	H	0.402203	0.984629	0.74012
338	N	0.477017	0.701431	0.019753
339	C	0.448263	0.726156	0.689876
340	N	0.475148	0.779401	0.695721
341	H	0.108837	0.926099	0.756628
342	H	0.488701	0.849698	0.762996
343	C	0.700975	0.391629	0.026425
344	N	0.646983	0.364725	0.026254
345	C	0.616562	0.310986	0.026428
346	N	0.64347	0.2839	0.026251
347	C	0.697205	0.307217	0.026422
348	N	0.724294	0.361209	0.026249
349	C	0.811641	0.11556	0.022231
350	N	0.865525	0.143832	0.022296
351	C	0.892631	0.197723	0.022233
352	N	0.864362	0.223333	0.022292
353	C	0.810472	0.196551	0.022226
354	N	0.784861	0.142667	0.022291
355	C	0.699183	0.221501	0.031673
356	C	0.724005	0.27765	0.026521
357	C	0.779869	0.304017	0.354348
358	N	0.806764	0.277227	0.353076
359	C	0.782038	0.223749	0.0232
360	N	0.72879	0.197386	0.029039
361	H	0.80161	0.344055	0.350191
362	C	0.642472	0.185434	0.041973
363	C	0.626826	0.142388	0.078266
364	C	0.62255	0.191558	0.088309
365	H	0.613877	0.174843	0.014758
366	H	0.582096	0.184373	0.089956
367	H	0.651954	0.219239	0.112044
368	H	0.658496	0.140636	0.096308
369	H	0.588979	0.105984	0.073434
370	C	0.78669	0.479318	0.031686
371	C	0.730543	0.447993	0.026532
372	C	0.704173	0.477492	0.354368
373	N	0.730965	0.031177	0.353083
374	C	0.784445	0.059931	0.02321
375	N	0.810807	0.033045	0.029052
376	H	0.66414	0.459197	0.350177
377	C	0.822756	0.458678	0.041985
378	C	0.865799	0.486073	0.078282
379	C	0.81663	0.432626	0.088319
380	H	0.833351	0.44068	0.014769
381	H	0.823812	0.399355	0.089962
382	H	0.788942	0.434341	0.112053
383	H	0.867547	0.019492	0.096328
384	H	0.902204	0.484631	0.073452
385	C	0.528872	0.309011	0.031687
386	C	0.560198	0.284188	0.026534
387	C	0.5307	0.228321	0.354375
388	N	0.977016	0.20143	0.353086
389	C	0.948262	0.226155	0.023209
390	N	0.975147	0.279402	0.029052
391	H	0.548994	0.206583	0.350181
392	C	0.549513	0.36572	0.041985
393	C	0.52212	0.381368	0.078281
394	C	0.575568	0.385647	0.088319
395	H	0.567512	0.394313	0.014769
396	H	0.608836	0.426101	0.089961
397	H	0.57385	0.356245	0.112054
398	H	0.9887	0.349697	0.096327
399	H	0.523562	0.419215	0.07345
400	C	0.700975	0.391629	0.35976
401	N	0.646983	0.364725	0.359588
402	C	0.616562	0.310986	0.359763
403	N	0.64347	0.2839	0.359585
404	C	0.697205	0.307217	0.359756
405	N	0.724294	0.361209	0.359582
406	C	0.811641	0.11556	0.355566
407	N	0.865525	0.143832	0.355629
408	C	0.892631	0.197723	0.355566
409	N	0.864362	0.223333	0.355626
410	C	0.810472	0.196551	0.355559
411	N	0.784861	0.142667	0.355626
412	C	0.699183	0.221501	0.365007
413	C	0.724005	0.27765	0.359854
414	C	0.779869	0.304017	0.687682
415	N	0.806764	0.277227	0.68641
416	C	0.782038	0.223749	0.356535
417	N	0.72879	0.197386	0.362373
418	H	0.80161	0.344055	0.683525
419	C	0.642472	0.185434	0.375308
420	C	0.626826	0.142388	0.411601
421	C	0.62255	0.191558	0.421643
422	H	0.613877	0.174843	0.348094
423	H	0.582096	0.184373	0.42329
424	H	0.651954	0.219239	0.445377
425	H	0.658496	0.140636	0.429641
426	H	0.588979	0.105984	0.406769
427	C	0.78669	0.479318	0.365021
428	C	0.730543	0.447993	0.359867
429	C	0.704173	0.477492	0.687702
430	N	0.730965	0.031177	0.686417
431	C	0.784445	0.059931	0.356542
432	N	0.810807	0.033045	0.362387
433	H	0.66414	0.459197	0.683508
434	C	0.822756	0.458678	0.375318
435	C	0.865799	0.486073	0.411617
436	C	0.81663	0.432626	0.421653
437	H	0.833351	0.44068	0.348104
438	H	0.823812	0.399355	0.423297
439	H	0.788942	0.434341	0.445387
440	H	0.867547	0.019492	0.429662
441	H	0.902204	0.484631	0.406786
442	C	0.528872	0.309011	0.365021
443	C	0.560198	0.284188	0.359867
444	C	0.5307	0.228321	0.687705
445	N	0.977016	0.20143	0.68642
446	C	0.948262	0.226155	0.356542
447	N	0.975147	0.279402	0.362387
448	H	0.548994	0.206583	0.683515
449	C	0.549513	0.36572	0.375318
450	C	0.52212	0.381368	0.411614
451	C	0.575568	0.385647	0.421653
452	H	0.567512	0.394313	0.348104
453	H	0.608836	0.426101	0.423293
454	H	0.57385	0.356245	0.445387
455	H	0.9887	0.349697	0.429662
456	H	0.523562	0.419215	0.406783
457	C	0.700975	0.391629	0.693094
458	N	0.646983	0.364725	0.692923
459	C	0.616562	0.310986	0.693097
460	N	0.64347	0.2839	0.692919
461	C	0.697205	0.307217	0.69309
462	N	0.724294	0.361209	0.692916
463	C	0.811641	0.11556	0.688896
464	N	0.865525	0.143832	0.688964
465	C	0.892631	0.197723	0.6889
466	N	0.864362	0.223333	0.68896
467	C	0.810472	0.196551	0.688893
468	N	0.784861	0.142667	0.688957
469	C	0.699183	0.221501	0.698341
470	C	0.724005	0.27765	0.693188
471	C	0.779869	0.304017	0.021014
472	N	0.806764	0.277227	0.019744
473	C	0.782038	0.223749	0.689866
474	N	0.72879	0.197386	0.695704
475	H	0.80161	0.344055	0.016858
476	C	0.642472	0.185434	0.708638
477	C	0.626826	0.142388	0.744935
478	C	0.62255	0.191558	0.754977
479	H	0.613877	0.174843	0.681424
480	H	0.582096	0.184373	0.756624
481	H	0.651954	0.219239	0.778711
482	H	0.658496	0.140636	0.762976
483	H	0.588979	0.105984	0.7401
484	C	0.78669	0.479318	0.698355
485	C	0.730543	0.447993	0.693201
486	C	0.704173	0.477492	0.021036
487	N	0.730965	0.031177	0.01975
488	C	0.784445	0.059931	0.689876
489	N	0.810807	0.033045	0.695721
490	H	0.66414	0.459197	0.016843
491	C	0.822756	0.458678	0.708652
492	C	0.865799	0.486073	0.744948
493	C	0.81663	0.432626	0.754987
494	H	0.833351	0.44068	0.681438
495	H	0.823812	0.399355	0.756631
496	H	0.788942	0.434341	0.778721
497	H	0.867547	0.019492	0.762996
498	H	0.902204	0.484631	0.74012
499	C	0.528872	0.309011	0.698355
500	C	0.560198	0.284188	0.693201
501	C	0.5307	0.228321	0.021039
502	N	0.977016	0.20143	0.019753
503	C	0.948262	0.226155	0.689876
504	N	0.975147	0.279402	0.695721
505	H	0.548994	0.206583	0.016848
506	C	0.549513	0.36572	0.708652
507	C	0.52212	0.381368	0.744948
508	C	0.575568	0.385647	0.754987
509	H	0.567512	0.394313	0.681435
510	H	0.608836	0.426101	0.756628
511	H	0.57385	0.356245	0.778721
512	H	0.9887	0.349697	0.762996
513	H	0.523562	0.419215	0.740117
514	C	0.700975	0.891629	0.026425
515	N	0.646984	0.864725	0.026254
516	C	0.616563	0.810984	0.026428
517	N	0.643468	0.783898	0.026251
518	C	0.697206	0.807217	0.026422
519	N	0.724292	0.861207	0.026249
520	C	0.811644	0.615561	0.022231
521	N	0.865527	0.643832	0.022296
522	C	0.892633	0.697723	0.022233
523	N	0.864359	0.723331	0.022292
524	C	0.81047	0.69655	0.022226
525	N	0.784859	0.642667	0.022291
526	C	0.699182	0.721501	0.031673
527	C	0.724005	0.77765	0.026521
528	C	0.77987	0.804015	0.354348
529	N	0.806765	0.777226	0.353076
530	C	0.782039	0.723747	0.0232
531	N	0.728792	0.697386	0.029039
532	H	0.801611	0.844052	0.350191
533	C	0.642473	0.685434	0.041973
534	C	0.626825	0.642386	0.078266
535	C	0.622552	0.691559	0.088309
536	H	0.613877	0.67484	0.014758
537	H	0.582097	0.684372	0.089956
538	H	0.651955	0.719239	0.112044
539	H	0.658497	0.640635	0.096308
540	H	0.588978	0.605982	0.073434
541	C	0.786691	0.979321	0.031686
542	C	0.730543	0.947996	0.026532
543	C	0.704172	0.97749	0.354368
544	N	0.730967	0.531177	0.353083
545	C	0.784443	0.559931	0.02321
546	N	0.810805	0.533043	0.029052
547	H	0.66414	0.959195	0.350177
548	C	0.822757	0.958676	0.041985
549	C	0.8658	0.986072	0.078282
550	C	0.816627	0.932624	0.088319
551	H	0.833352	0.940678	0.014769
552	H	0.823815	0.899358	0.089962
553	H	0.788943	0.93434	0.112053
554	H	0.867545	0.51949	0.096328
555	H	0.902201	0.984629	0.073452
556	C	0.528873	0.809011	0.031687
557	C	0.560198	0.784187	0.026534
558	C	0.530699	0.728319	0.354375
559	N	0.977015	0.701431	0.353086
560	C	0.948261	0.726156	0.023209
561	N	0.975148	0.779401	0.029052
562	H	0.548994	0.706581	0.350181
563	C	0.549515	0.865719	0.041985
564	C	0.52212	0.881368	0.078281
565	C	0.575568	0.885646	0.088319
566	H	0.567514	0.894315	0.014769
567	H	0.608836	0.926099	0.089961
568	H	0.573852	0.856247	0.112054
569	H	0.988702	0.849698	0.096327
570	H	0.523561	0.919214	0.07345
571	C	0.700975	0.891629	0.35976
572	N	0.646984	0.864725	0.359588
573	C	0.616563	0.810984	0.359763
574	N	0.643468	0.783898	0.359585
575	C	0.697206	0.807217	0.359756
576	N	0.724292	0.861207	0.359582
577	C	0.811644	0.615561	0.355566
578	N	0.865527	0.643832	0.355629
579	C	0.892633	0.697723	0.355566
580	N	0.864359	0.723331	0.355626
581	C	0.81047	0.69655	0.355559
582	N	0.784859	0.642667	0.355626
583	C	0.699182	0.721501	0.365007
584	C	0.724005	0.77765	0.359854
585	C	0.77987	0.804015	0.687682
586	N	0.806765	0.777226	0.68641
587	C	0.782039	0.723747	0.356535
588	N	0.728792	0.697386	0.362373
589	H	0.801611	0.844052	0.683525
590	C	0.642473	0.685434	0.375308
591	C	0.626825	0.642386	0.411601
592	C	0.622552	0.691559	0.421643
593	H	0.613877	0.67484	0.348094
594	H	0.582097	0.684372	0.42329
595	H	0.651955	0.719239	0.445377
596	H	0.658497	0.640635	0.429641
597	H	0.588978	0.605982	0.406769
598	C	0.786691	0.979321	0.365021
599	C	0.730543	0.947996	0.359867
600	C	0.704172	0.97749	0.687702
601	N	0.730967	0.531177	0.686417
602	C	0.784443	0.559931	0.356542
603	N	0.810805	0.533043	0.362387
604	H	0.66414	0.959195	0.683508
605	C	0.822757	0.958676	0.375318
606	C	0.8658	0.986072	0.411617
607	C	0.816627	0.932624	0.421653
608	H	0.833352	0.940678	0.348104
609	H	0.823815	0.899358	0.423297
610	H	0.788943	0.93434	0.445387
611	H	0.867545	0.51949	0.429662
612	H	0.902201	0.984629	0.406786
613	C	0.528873	0.809011	0.365021
614	C	0.560198	0.784187	0.359867
615	C	0.530699	0.728319	0.687705
616	N	0.977015	0.701431	0.68642
617	C	0.948261	0.726156	0.356542
618	N	0.975148	0.779401	0.362387
619	H	0.548994	0.706581	0.683515
620	C	0.549515	0.865719	0.375318
621	C	0.52212	0.881368	0.411614
622	C	0.575568	0.885646	0.421653
623	H	0.567514	0.894315	0.348104
624	H	0.608836	0.926099	0.423293
625	H	0.573852	0.856247	0.445387
626	H	0.988702	0.849698	0.429662
627	H	0.523561	0.919214	0.406783
628	C	0.700975	0.891629	0.693094
629	N	0.646984	0.864725	0.692923
630	C	0.616563	0.810984	0.693097
631	N	0.643468	0.783898	0.692919
632	C	0.697206	0.807217	0.69309
633	N	0.724292	0.861207	0.692916
634	C	0.811644	0.615561	0.688896
635	N	0.865527	0.643832	0.688964
636	C	0.892633	0.697723	0.6889
637	N	0.864359	0.723331	0.68896
638	C	0.81047	0.69655	0.688893
639	N	0.784859	0.642667	0.688957
640	C	0.699182	0.721501	0.698341
641	C	0.724005	0.77765	0.693188
642	C	0.77987	0.804015	0.021014
643	N	0.806765	0.777226	0.019744
644	C	0.782039	0.723747	0.689866
645	N	0.728792	0.697386	0.695704
646	H	0.801611	0.844052	0.016858
647	C	0.642473	0.685434	0.708638
648	C	0.626825	0.642386	0.744935
649	C	0.622552	0.691559	0.754977
650	H	0.613877	0.67484	0.681424
651	H	0.582097	0.684372	0.756624
652	H	0.651955	0.719239	0.778711
653	H	0.658497	0.640635	0.762976
654	H	0.588978	0.605982	0.7401
655	C	0.786691	0.979321	0.698355
656	C	0.730543	0.947996	0.693201
657	C	0.704172	0.97749	0.021036
658	N	0.730967	0.531177	0.01975
659	C	0.784443	0.559931	0.689876
660	N	0.810805	0.533043	0.695721
661	H	0.66414	0.959195	0.016843
662	C	0.822757	0.958676	0.708652
663	C	0.8658	0.986072	0.744948
664	C	0.816627	0.932624	0.754987
665	H	0.833352	0.940678	0.681438
666	H	0.823815	0.899358	0.756631
667	H	0.788943	0.93434	0.778721
668	H	0.867545	0.51949	0.762996
669	H	0.902201	0.984629	0.74012
670	C	0.528873	0.809011	0.698355
671	C	0.560198	0.784187	0.693201
672	C	0.530699	0.728319	0.021039
673	N	0.977015	0.701431	0.019753
674	C	0.948261	0.726156	0.689876
675	N	0.975148	0.779401	0.695721
676	H	0.548994	0.706581	0.016848
677	C	0.549515	0.865719	0.708652
678	C	0.52212	0.881368	0.744948
679	C	0.575568	0.885646	0.754987
680	H	0.567514	0.894315	0.681435
681	H	0.608836	0.926099	0.756628
682	H	0.573852	0.856247	0.778721
683	H	0.988702	0.849698	0.762996
684	H	0.523561	0.919214	0.740117
