data_C288H144N36O72_2018-02-15_10:39:04
#******************************************
#
# CIF file created by Zeo++
# Zeo++ is an open source package to
# analyze microporous materials
#
#*******************************************

_cell_length_a		34.3938   
_cell_length_b		34.4043   
_cell_length_c		29.6336   
_cell_angle_alpha		90   
_cell_angle_beta		90   
_cell_angle_gamma		119.993   

_symmetry_space_group_name_H-M		'P1'
_symmetry_Int_Tables_number		1
_symmetry_cell_setting		Monoclinic

loop_
_symmetry_equiv_pos_as_xyz
'+x,+y,+z'

loop_
_atom_site_label
_atom_site_type_symbol
_atom_site_fract_x
_atom_site_fract_y
_atom_site_fract_z
1	C	0.053599	0.028102	0.006098
2	C	0.029515	0.051522	0.006098
3	C	0.982011	0.028321	0.006088
4	C	0.958588	0.980828	0.006095
5	C	0.981799	0.956537	0.006098
6	C	0.029308	0.98061	0.006102
7	H	0.92418	0.963709	0.006105
8	H	0.046437	0.963336	0.006119
9	H	0.046794	0.085918	0.006109
10	C	0.462459	0.194315	0.01123
11	C	0.485999	0.241407	0.006967
12	C	0.463756	0.266228	0.001981
13	C	0.416261	0.242684	0.002987
14	C	0.390959	0.19505	0.006541
15	C	0.415062	0.171489	0.009934
16	H	0.40004	0.260723	0.000726
17	H	0.398075	0.137182	0.011624
18	H	0.520455	0.258105	0.007328
19	C	0.816106	0.27122	0.011272
20	C	0.768998	0.247689	0.006997
21	C	0.744155	0.20064	0.001998
22	C	0.767687	0.176683	0.002994
23	C	0.815334	0.198991	0.006537
24	C	0.838924	0.246642	0.009943
25	H	0.749629	0.142431	0.000726
26	H	0.873241	0.263946	0.011627
27	H	0.752309	0.265451	0.007359
28	C	0.739098	0.547809	0.011274
29	C	0.762648	0.52426	0.006994
30	C	0.809712	0.54647	0.001992
31	C	0.833665	0.593948	0.002997
32	C	0.811341	0.619269	0.006555
33	C	0.763673	0.595193	0.009957
34	H	0.867927	0.610147	0.000733
35	H	0.746355	0.612191	0.011646
36	H	0.744886	0.489813	0.00735
37	C	0.342577	0.17135	0.006525
38	C	0.317391	0.134065	0.035308
39	C	0.270067	0.110651	0.03522
40	C	0.2458	0.123603	0.339692
41	C	0.270599	0.160794	0.310947
42	C	0.317936	0.184099	0.311032
43	H	0.254257	0.171331	0.289652
44	H	0.334315	0.210252	0.288964
45	C	0.197634	0.099757	0.339588
46	C	0.173321	0.098806	0.045527
47	C	0.125715	0.075387	0.044788
48	C	0.101417	0.051898	0.339476
49	C	0.125733	0.0526	0.300883
50	C	0.173344	0.076526	0.300261
51	H	0.10863	0.07509	0.073224
52	H	0.108661	0.035881	0.272419
53	H	0.333365	0.123853	0.057426
54	H	0.253346	0.08377	0.056428
55	N	0.196979	0.07677	0.260975
56	N	0.196934	0.122006	0.084893
57	O	0.187896	0.095706	0.117714
58	O	0.188103	0.037869	0.250147
59	O	0.188187	0.09418	0.228107
60	O	0.188288	0.152189	0.095737
61	C	0.839011	0.174288	0.006504
62	C	0.876303	0.186346	0.035284
63	C	0.899677	0.162398	0.035193
64	C	0.886667	0.125171	0.339675
65	C	0.849472	0.112821	0.310933
66	C	0.826216	0.136897	0.311014
67	H	0.838897	0.085941	0.289645
68	H	0.800056	0.127148	0.288951
69	C	0.910466	0.100804	0.339571
70	C	0.911392	0.077439	0.045514
71	C	0.934759	0.053203	0.044774
72	C	0.958217	0.052343	0.339453
73	C	0.957542	0.07596	0.300858
74	C	0.933665	0.099695	0.300239
75	H	0.935048	0.036425	0.073216
76	H	0.974248	0.075581	0.272392
77	H	0.886557	0.212539	0.05739
78	H	0.926564	0.17253	0.056396
79	N	0.933452	0.12309	0.26095
80	N	0.888223	0.077906	0.084889
81	O	0.914552	0.095149	0.117696
82	O	0.972379	0.153067	0.250109
83	O	0.915997	0.096894	0.228088
84	O	0.857998	0.039108	0.095753
85	C	0.83603	0.667636	0.006535
86	C	0.823929	0.692837	0.035307
87	C	0.847851	0.740147	0.035216
88	C	0.885083	0.764391	0.339699
89	C	0.897473	0.739576	0.310962
90	C	0.873428	0.692253	0.311049
91	H	0.924358	0.755896	0.289674
92	H	0.883205	0.675865	0.288988
93	C	0.909412	0.812543	0.339591
94	C	0.932757	0.836844	0.045535
95	C	0.956951	0.884436	0.044794
96	C	0.957788	0.908734	0.339473
97	C	0.93419	0.884429	0.300873
98	C	0.910496	0.836831	0.300254
99	H	0.973725	0.901515	0.073236
100	H	0.934555	0.901498	0.272402
101	H	0.797737	0.676885	0.057419
102	H	0.83769	0.756876	0.056416
103	N	0.887122	0.813211	0.260961
104	N	0.932319	0.813234	0.084913
105	O	0.915041	0.822289	0.117716
106	O	0.857106	0.822108	0.250109
107	O	0.913341	0.821983	0.228107
108	O	0.971143	0.821856	0.095783
109	C	0.696594	0.179987	0.330599
110	C	0.67866	0.196697	0.297894
111	C	0.633948	0.187107	0.30049
112	C	0.605046	0.159365	0.001735
113	C	0.622078	0.140048	0.032524
114	C	0.667243	0.150329	0.030481
115	H	0.602498	0.120789	0.058708
116	H	0.679475	0.139164	0.0558
117	C	0.562873	0.157545	0.008508
118	C	0.530942	0.144135	0.306149
119	C	0.494121	0.151692	0.309666
120	C	0.488305	0.17256	0.014619
121	C	0.518757	0.18357	0.050747
122	C	0.556048	0.176824	0.048124
123	H	0.473715	0.145406	0.28221
124	H	0.516314	0.200698	0.077887
125	H	0.699189	0.21947	0.27425
126	H	0.623803	0.203503	0.278816
127	N	0.588627	0.193246	0.083066
128	N	0.537434	0.125191	0.266355
129	O	0.541964	0.148681	0.232096
130	O	0.606686	0.235069	0.087697
131	O	0.571934	0.174777	0.120203
132	O	0.505254	0.086229	0.259719
133	C	0.830366	0.519564	0.330589
134	C	0.813665	0.48494	0.297876
135	C	0.823275	0.44984	0.300482
136	C	0.851035	0.448698	0.001725
137	C	0.870354	0.485048	0.032509
138	C	0.860057	0.519914	0.030466
139	H	0.88963	0.484742	0.05869
140	H	0.871221	0.543308	0.055779
141	C	0.852871	0.408366	0.008507
142	C	0.866272	0.38984	0.306147
143	C	0.858721	0.345477	0.309675
144	C	0.837876	0.318815	0.014643
145	C	0.826878	0.338261	0.050771
146	C	0.833613	0.382279	0.048137
147	H	0.864999	0.331354	0.282217
148	H	0.809761	0.318705	0.077922
149	H	0.790877	0.482685	0.274236
150	H	0.80688	0.423303	0.278813
151	N	0.817196	0.398435	0.083083
152	N	0.885199	0.415256	0.266339
153	O	0.861685	0.396281	0.232093
154	O	0.775364	0.374668	0.087737
155	O	0.835692	0.400234	0.120212
156	O	0.924169	0.422041	0.259687
157	C	0.490637	0.313776	0.330585
158	C	0.525274	0.331714	0.297872
159	C	0.560392	0.376406	0.300479
160	C	0.561558	0.405292	0.001742
161	C	0.52521	0.38826	0.032537
162	C	0.490329	0.343111	0.030486
163	H	0.52553	0.407825	0.058734
164	H	0.466942	0.330877	0.055812
165	C	0.601911	0.447447	0.008521
166	C	0.620433	0.479376	0.306169
167	C	0.664809	0.516178	0.309695
168	C	0.691491	0.521981	0.014651
169	C	0.672046	0.491532	0.050772
170	C	0.628014	0.454259	0.04814
171	H	0.678931	0.536583	0.282242
172	H	0.691615	0.493965	0.077915
173	H	0.527522	0.311195	0.274216
174	H	0.586933	0.386548	0.278799
175	N	0.611859	0.421686	0.083075
176	N	0.595	0.472902	0.266372
177	O	0.61397	0.468375	0.232113
178	O	0.635635	0.403624	0.087704
179	O	0.610073	0.438365	0.120216
180	O	0.588211	0.50508	0.259744
181	C	0.053599	0.028102	0.339432
182	C	0.029515	0.051522	0.339429
183	C	0.982011	0.028321	0.339422
184	C	0.958588	0.980828	0.339429
185	C	0.981799	0.956537	0.339432
186	C	0.029308	0.98061	0.339436
187	H	0.92418	0.963709	0.339439
188	H	0.046437	0.963336	0.339453
189	H	0.046794	0.085918	0.339443
190	C	0.462459	0.194315	0.344562
191	C	0.485999	0.241407	0.3403
192	C	0.463756	0.266228	0.335314
193	C	0.416261	0.242684	0.336321
194	C	0.390959	0.19505	0.339875
195	C	0.415062	0.171489	0.343266
196	H	0.40004	0.260723	0.334061
197	H	0.398075	0.137182	0.344957
198	H	0.520455	0.258105	0.340661
199	C	0.816106	0.27122	0.344606
200	C	0.768998	0.247689	0.34033
201	C	0.744155	0.20064	0.335331
202	C	0.767687	0.176683	0.336327
203	C	0.815334	0.198991	0.339871
204	C	0.838924	0.246642	0.343276
205	H	0.749629	0.142431	0.334061
206	H	0.873241	0.263946	0.34496
207	H	0.752309	0.265451	0.340691
208	C	0.739098	0.547809	0.344606
209	C	0.762648	0.52426	0.340327
210	C	0.809712	0.54647	0.335325
211	C	0.833665	0.593948	0.336331
212	C	0.811341	0.619269	0.339888
213	C	0.763673	0.595193	0.34329
214	H	0.867927	0.610147	0.334067
215	H	0.746355	0.612191	0.34498
216	H	0.744886	0.489813	0.340684
217	C	0.342577	0.17135	0.339858
218	C	0.317391	0.134065	0.368643
219	C	0.270067	0.110651	0.368551
220	C	0.2458	0.123603	0.673024
221	C	0.270599	0.160794	0.644279
222	C	0.317936	0.184099	0.644364
223	H	0.254257	0.171331	0.622986
224	H	0.334315	0.210252	0.622297
225	C	0.197634	0.099757	0.672922
226	C	0.173321	0.098806	0.378861
227	C	0.125715	0.075387	0.378122
228	C	0.101417	0.051898	0.672808
229	C	0.125733	0.0526	0.634216
230	C	0.173344	0.076526	0.633595
231	H	0.10863	0.07509	0.406556
232	H	0.108661	0.035881	0.605752
233	H	0.333365	0.123853	0.390759
234	H	0.253346	0.08377	0.389761
235	N	0.196979	0.07677	0.594309
236	N	0.196934	0.122006	0.418225
237	O	0.187896	0.095706	0.451046
238	O	0.188103	0.037869	0.58348
239	O	0.188187	0.09418	0.561441
240	O	0.188288	0.152189	0.429071
241	C	0.839011	0.174288	0.339837
242	C	0.876303	0.186346	0.368616
243	C	0.899677	0.162398	0.368528
244	C	0.886667	0.125171	0.67301
245	C	0.849472	0.112821	0.644266
246	C	0.826216	0.136897	0.644347
247	H	0.838897	0.085941	0.622979
248	H	0.800056	0.127148	0.622284
249	C	0.910466	0.100804	0.672905
250	C	0.911392	0.077439	0.378847
251	C	0.934759	0.053203	0.378108
252	C	0.958217	0.052343	0.672787
253	C	0.957542	0.07596	0.634193
254	C	0.933665	0.099695	0.633572
255	H	0.935048	0.036425	0.406549
256	H	0.974248	0.075581	0.605725
257	H	0.886557	0.212539	0.390722
258	H	0.926564	0.17253	0.38973
259	N	0.933452	0.12309	0.594282
260	N	0.888223	0.077906	0.418221
261	O	0.914552	0.095149	0.451029
262	O	0.972379	0.153067	0.583443
263	O	0.915997	0.096894	0.56142
264	O	0.857998	0.039108	0.429088
265	C	0.83603	0.667636	0.339868
266	C	0.823929	0.692837	0.368639
267	C	0.847851	0.740147	0.368548
268	C	0.885083	0.764391	0.67303
269	C	0.897473	0.739576	0.644296
270	C	0.873428	0.692253	0.64438
271	H	0.924358	0.755896	0.623006
272	H	0.883205	0.675865	0.622321
273	C	0.909412	0.812543	0.672922
274	C	0.932757	0.836844	0.378867
275	C	0.956951	0.884436	0.378128
276	C	0.957788	0.908734	0.672804
277	C	0.93419	0.884429	0.634206
278	C	0.910496	0.836831	0.633589
279	H	0.973725	0.901515	0.406569
280	H	0.934555	0.901498	0.605735
281	H	0.797737	0.676885	0.390753
282	H	0.83769	0.756876	0.38975
283	N	0.887122	0.813211	0.594295
284	N	0.932319	0.813234	0.418245
285	O	0.915041	0.822289	0.451049
286	O	0.857106	0.822108	0.583443
287	O	0.913341	0.821983	0.561441
288	O	0.971143	0.821856	0.429115
289	C	0.696594	0.179987	0.663933
290	C	0.67866	0.196697	0.631226
291	C	0.633948	0.187107	0.633825
292	C	0.605046	0.159365	0.335067
293	C	0.622078	0.140048	0.365855
294	C	0.667243	0.150329	0.363814
295	H	0.602498	0.120789	0.392042
296	H	0.679475	0.139164	0.389133
297	C	0.562873	0.157545	0.341842
298	C	0.530942	0.144135	0.639484
299	C	0.494121	0.151692	0.643
300	C	0.488305	0.17256	0.347953
301	C	0.518757	0.18357	0.384081
302	C	0.556048	0.176824	0.381459
303	H	0.473715	0.145406	0.615542
304	H	0.516314	0.200698	0.411219
305	H	0.699189	0.21947	0.607584
306	H	0.623803	0.203503	0.61215
307	N	0.588627	0.193246	0.416399
308	N	0.537434	0.125191	0.599688
309	O	0.541964	0.148681	0.565429
310	O	0.606686	0.235069	0.421029
311	O	0.571934	0.174777	0.453536
312	O	0.505254	0.086229	0.59305
313	C	0.830366	0.519564	0.663922
314	C	0.813665	0.48494	0.63121
315	C	0.823275	0.44984	0.633815
316	C	0.851035	0.448698	0.33506
317	C	0.870354	0.485048	0.365842
318	C	0.860057	0.519914	0.3638
319	H	0.88963	0.484742	0.392021
320	H	0.871221	0.543308	0.389113
321	C	0.852871	0.408366	0.341842
322	C	0.866272	0.38984	0.639481
323	C	0.858721	0.345477	0.643007
324	C	0.837876	0.318815	0.347977
325	C	0.826878	0.338261	0.384105
326	C	0.833613	0.382279	0.381469
327	H	0.864999	0.331354	0.615552
328	H	0.809761	0.318705	0.411256
329	H	0.790877	0.482685	0.607571
330	H	0.80688	0.423303	0.612147
331	N	0.817196	0.398435	0.416416
332	N	0.885199	0.415256	0.599671
333	O	0.861685	0.396281	0.565426
334	O	0.775364	0.374668	0.42107
335	O	0.835692	0.400234	0.453546
336	O	0.924169	0.422041	0.59302
337	C	0.490637	0.313776	0.663919
338	C	0.525274	0.331714	0.631206
339	C	0.560392	0.376406	0.633811
340	C	0.561558	0.405292	0.335074
341	C	0.52521	0.38826	0.365869
342	C	0.490329	0.343111	0.36382
343	H	0.52553	0.407825	0.392069
344	H	0.466942	0.330877	0.389146
345	C	0.601911	0.447447	0.341855
346	C	0.620433	0.479376	0.639501
347	C	0.664809	0.516178	0.643027
348	C	0.691491	0.521981	0.347984
349	C	0.672046	0.491532	0.384105
350	C	0.628014	0.454259	0.381473
351	H	0.678931	0.536583	0.615575
352	H	0.691615	0.493965	0.411246
353	H	0.527522	0.311195	0.607547
354	H	0.586933	0.386548	0.612133
355	N	0.611859	0.421686	0.416409
356	N	0.595	0.472902	0.599705
357	O	0.61397	0.468375	0.565446
358	O	0.635635	0.403624	0.421036
359	O	0.610073	0.438365	0.45355
360	O	0.588211	0.50508	0.593077
361	C	0.053599	0.028102	0.672767
362	C	0.029515	0.051522	0.672764
363	C	0.982011	0.028321	0.672757
364	C	0.958588	0.980828	0.67276
365	C	0.981799	0.956537	0.672764
366	C	0.029308	0.98061	0.672771
367	H	0.92418	0.963709	0.672774
368	H	0.046437	0.963336	0.672787
369	H	0.046794	0.085918	0.672777
370	C	0.462459	0.194315	0.677896
371	C	0.485999	0.241407	0.673634
372	C	0.463756	0.266228	0.668647
373	C	0.416261	0.242684	0.669656
374	C	0.390959	0.19505	0.673206
375	C	0.415062	0.171489	0.676601
376	H	0.40004	0.260723	0.667395
377	H	0.398075	0.137182	0.678291
378	H	0.520455	0.258105	0.673995
379	C	0.816106	0.27122	0.677937
380	C	0.768998	0.247689	0.673665
381	C	0.744155	0.20064	0.668664
382	C	0.767687	0.176683	0.669659
383	C	0.815334	0.198991	0.673202
384	C	0.838924	0.246642	0.676607
385	H	0.749629	0.142431	0.667395
386	H	0.873241	0.263946	0.678295
387	H	0.752309	0.265451	0.674026
388	C	0.739098	0.547809	0.67794
389	C	0.762648	0.52426	0.673661
390	C	0.809712	0.54647	0.668657
391	C	0.833665	0.593948	0.669666
392	C	0.811341	0.619269	0.673223
393	C	0.763673	0.595193	0.676624
394	H	0.867927	0.610147	0.667402
395	H	0.746355	0.612191	0.678312
396	H	0.744886	0.489813	0.674016
397	C	0.342577	0.17135	0.673192
398	C	0.317391	0.134065	0.701974
399	C	0.270067	0.110651	0.701886
400	C	0.2458	0.123603	0.006359
401	C	0.270599	0.160794	0.977614
402	C	0.317936	0.184099	0.977698
403	H	0.254257	0.171331	0.956317
404	H	0.334315	0.210252	0.955632
405	C	0.197634	0.099757	0.006255
406	C	0.173321	0.098806	0.712192
407	C	0.125715	0.075387	0.711453
408	C	0.101417	0.051898	0.006142
409	C	0.125733	0.0526	0.967551
410	C	0.173344	0.076526	0.966927
411	H	0.10863	0.07509	0.73989
412	H	0.108661	0.035881	0.939087
413	H	0.333365	0.123853	0.724094
414	H	0.253346	0.08377	0.723095
415	N	0.196979	0.07677	0.92764
416	N	0.196934	0.122006	0.751559
417	O	0.187896	0.095706	0.78438
418	O	0.188103	0.037869	0.916815
419	O	0.188187	0.09418	0.894772
420	O	0.188288	0.152189	0.762402
421	C	0.839011	0.174288	0.673169
422	C	0.876303	0.186346	0.70195
423	C	0.899677	0.162398	0.701859
424	C	0.886667	0.125171	0.006342
425	C	0.849472	0.112821	0.9776
426	C	0.826216	0.136897	0.977681
427	H	0.838897	0.085941	0.95631
428	H	0.800056	0.127148	0.955615
429	C	0.910466	0.100804	0.006239
430	C	0.911392	0.077439	0.712182
431	C	0.934759	0.053203	0.711439
432	C	0.958217	0.052343	0.006119
433	C	0.957542	0.07596	0.967524
434	C	0.933665	0.099695	0.966906
435	H	0.935048	0.036425	0.73988
436	H	0.974248	0.075581	0.93906
437	H	0.886557	0.212539	0.724057
438	H	0.926564	0.17253	0.723061
439	N	0.933452	0.12309	0.927617
440	N	0.888223	0.077906	0.751556
441	O	0.914552	0.095149	0.784363
442	O	0.972379	0.153067	0.916774
443	O	0.915997	0.096894	0.894755
444	O	0.857998	0.039108	0.762419
445	C	0.83603	0.667636	0.673202
446	C	0.823929	0.692837	0.701974
447	C	0.847851	0.740147	0.701883
448	C	0.885083	0.764391	0.006365
449	C	0.897473	0.739576	0.977627
450	C	0.873428	0.692253	0.977715
451	H	0.924358	0.755896	0.956341
452	H	0.883205	0.675865	0.955656
453	C	0.909412	0.812543	0.006257
454	C	0.932757	0.836844	0.712202
455	C	0.956951	0.884436	0.71146
456	C	0.957788	0.908734	0.006139
457	C	0.93419	0.884429	0.967537
458	C	0.910496	0.836831	0.96692
459	H	0.973725	0.901515	0.7399
460	H	0.934555	0.901498	0.93907
461	H	0.797737	0.676885	0.724084
462	H	0.83769	0.756876	0.723082
463	N	0.887122	0.813211	0.927627
464	N	0.932319	0.813234	0.75158
465	O	0.915041	0.822289	0.784384
466	O	0.857106	0.822108	0.916774
467	O	0.913341	0.821983	0.894772
468	O	0.971143	0.821856	0.762449
469	C	0.696594	0.179987	0.997264
470	C	0.67866	0.196697	0.964561
471	C	0.633948	0.187107	0.967156
472	C	0.605046	0.159365	0.6684
473	C	0.622078	0.140048	0.69919
474	C	0.667243	0.150329	0.697148
475	H	0.602498	0.120789	0.725373
476	H	0.679475	0.139164	0.722468
477	C	0.562873	0.157545	0.675173
478	C	0.530942	0.144135	0.972815
479	C	0.494121	0.151692	0.976332
480	C	0.488305	0.17256	0.681284
481	C	0.518757	0.18357	0.717412
482	C	0.556048	0.176824	0.71479
483	H	0.473715	0.145406	0.948876
484	H	0.516314	0.200698	0.744554
485	H	0.699189	0.21947	0.940916
486	H	0.623803	0.203503	0.945481
487	N	0.588627	0.193246	0.74973
488	N	0.537434	0.125191	0.933019
489	O	0.541964	0.148681	0.898761
490	O	0.606686	0.235069	0.754364
491	O	0.571934	0.174777	0.786871
492	O	0.505254	0.086229	0.926385
493	C	0.830366	0.519564	0.997254
494	C	0.813665	0.48494	0.964541
495	C	0.823275	0.44984	0.967149
496	C	0.851035	0.448698	0.668394
497	C	0.870354	0.485048	0.699176
498	C	0.860057	0.519914	0.697131
499	H	0.88963	0.484742	0.725356
500	H	0.871221	0.543308	0.722444
501	C	0.852871	0.408366	0.675173
502	C	0.866272	0.38984	0.972812
503	C	0.858721	0.345477	0.976342
504	C	0.837876	0.318815	0.681308
505	C	0.826878	0.338261	0.717436
506	C	0.833613	0.382279	0.714804
507	H	0.864999	0.331354	0.948883
508	H	0.809761	0.318705	0.744588
509	H	0.790877	0.482685	0.940902
510	H	0.80688	0.423303	0.945478
511	N	0.817196	0.398435	0.749751
512	N	0.885199	0.415256	0.933006
513	O	0.861685	0.396281	0.898761
514	O	0.775364	0.374668	0.754404
515	O	0.835692	0.400234	0.786878
516	O	0.924169	0.422041	0.926354
517	C	0.490637	0.313776	0.99725
518	C	0.525274	0.331714	0.964537
519	C	0.560392	0.376406	0.967146
520	C	0.561558	0.405292	0.668407
521	C	0.52521	0.38826	0.699203
522	C	0.490329	0.343111	0.697152
523	H	0.52553	0.407825	0.7254
524	H	0.466942	0.330877	0.722478
525	C	0.601911	0.447447	0.675187
526	C	0.620433	0.479376	0.972835
527	C	0.664809	0.516178	0.976362
528	C	0.691491	0.521981	0.681318
529	C	0.672046	0.491532	0.717439
530	C	0.628014	0.454259	0.714807
531	H	0.678931	0.536583	0.948907
532	H	0.691615	0.493965	0.744581
533	H	0.527522	0.311195	0.940882
534	H	0.586933	0.386548	0.945465
535	N	0.611859	0.421686	0.749741
536	N	0.595	0.472902	0.933039
537	O	0.61397	0.468375	0.898778
538	O	0.635635	0.403624	0.75437
539	O	0.610073	0.438365	0.786881
540	O	0.588211	0.50508	0.926408
