data_C144H90N36O18_2018-02-15_10:32:30
#******************************************
#
# CIF file created by Zeo++
# Zeo++ is an open source package to
# analyze microporous materials
#
#*******************************************

_cell_length_a		29.2862   
_cell_length_b		29.287   
_cell_length_c		30.0742   
_cell_angle_alpha		90   
_cell_angle_beta		90   
_cell_angle_gamma		120   

_symmetry_space_group_name_H-M		'P1'
_symmetry_Int_Tables_number		1
_symmetry_cell_setting		Monoclinic

loop_
_symmetry_equiv_pos_as_xyz
'+x,+y,+z'

loop_
_atom_site_label
_atom_site_type_symbol
_atom_site_fract_x
_atom_site_fract_y
_atom_site_fract_z
1	C	0.278318	0.630316	0.965984
2	N	0.313769	0.61328	0.966356
3	C	0.366584	0.647368	0.299259
4	N	0.383626	0.699858	0.966263
5	C	0.349538	0.718585	0.965887
6	N	0.297051	0.683133	0.966326
7	C	0.403139	0.629402	0.969335
8	C	0.367511	0.773109	0.302634
9	C	0.223798	0.593787	0.969472
10	O	0.330538	0.787618	0.974419
11	O	0.209282	0.542311	0.974642
12	O	0.454633	0.66638	0.97437
13	C	0.718575	0.363549	0.040419
14	N	0.686713	0.384894	0.040319
15	C	0.633335	0.354388	0.373646
16	N	0.611991	0.301184	0.040208
17	C	0.642497	0.278315	0.040303
18	N	0.695701	0.310174	0.040309
19	C	0.600416	0.376809	0.038646
20	C	0.620091	0.22298	0.37194
21	C	0.773921	0.396463	0.038853
22	O	0.652976	0.203576	0.045195
23	O	0.793272	0.448767	0.045299
24	O	0.548125	0.343914	0.045221
25	C	0.586664	0.448668	0.018459
26	C	0.589104	0.47316	0.310702
27	C	0.555935	0.494029	0.302141
28	C	0.520622	0.492404	0.00168
29	C	0.519422	0.469375	0.043324
30	C	0.551852	0.447576	0.051523
31	H	0.494232	0.467435	0.067812
32	H	0.550243	0.431233	0.081956
33	C	0.487479	0.513935	0.326505
34	C	0.454373	0.498409	0.288658
35	C	0.421242	0.519463	0.280561
36	C	0.421675	0.557893	0.309205
37	C	0.454266	0.572891	0.013996
38	C	0.48661	0.551123	0.022615
39	H	0.453329	0.470838	0.267119
40	H	0.397444	0.507335	0.253085
41	H	0.453921	0.599118	0.036263
42	H	0.614187	0.47471	0.286292
43	H	0.510048	0.563227	0.050327
44	H	0.558438	0.511211	0.271916
45	N	0.388597	0.577354	0.301311
46	H	0.35256	0.551837	0.292648
47	N	0.618493	0.427657	0.025791
48	H	0.654625	0.447986	0.014881
49	C	0.548223	0.137342	0.018463
50	C	0.523661	0.115283	0.310729
51	C	0.502801	0.061251	0.302153
52	C	0.504509	0.027571	0.001655
53	C	0.527608	0.049404	0.04328
54	C	0.549394	0.103628	0.051493
55	H	0.529611	0.026162	0.067742
56	H	0.565787	0.118362	0.081913
57	C	0.48299	0.972902	0.326463
58	C	0.498426	0.955337	0.288553
59	C	0.477374	0.90116	0.280433
60	C	0.439027	0.863149	0.309123
61	C	0.424117	0.880721	0.013978
62	C	0.445888	0.934831	0.022617
63	H	0.525934	0.981875	0.266979
64	H	0.489433	0.889502	0.252908
65	H	0.39795	0.85414	0.036273
66	H	0.52205	0.138809	0.286344
67	H	0.433845	0.946151	0.050373
68	H	0.485564	0.046569	0.271945
69	N	0.419554	0.810616	0.301202
70	H	0.445058	0.800101	0.292485
71	N	0.569223	0.190178	0.025803
72	H	0.548867	0.205964	0.014925
73	C	0.859574	0.410282	0.018668
74	C	0.881651	0.407731	0.31096
75	C	0.935685	0.440909	0.302385
76	C	0.969348	0.47635	0.001866
77	C	0.947501	0.477667	0.043468
78	C	0.893271	0.445222	0.051677
79	H	0.970729	0.502951	0.067914
80	H	0.878528	0.446917	0.082082
81	C	0.024015	0.509508	0.326674
82	C	0.04157	0.542461	0.288736
83	C	0.095747	0.575584	0.280607
84	C	0.133765	0.575288	0.309315
85	C	0.116199	0.542851	0.014198
86	C	0.06209	0.510517	0.022846
87	H	0.015027	0.543399	0.267146
88	H	0.107403	0.599267	0.253061
89	H	0.142786	0.543293	0.036501
90	H	0.85814	0.382557	0.286589
91	H	0.050774	0.487184	0.050621
92	H	0.95038	0.438318	0.272194
93	N	0.186297	0.608332	0.301375
94	H	0.196809	0.644336	0.292615
95	N	0.806737	0.378437	0.025999
96	H	0.790962	0.342293	0.015134
97	C	0.278318	0.630316	0.299318
98	N	0.313769	0.61328	0.299688
99	C	0.366584	0.647368	0.632592
100	N	0.383626	0.699858	0.299597
101	C	0.349538	0.718585	0.299221
102	N	0.297051	0.683133	0.299658
103	C	0.403139	0.629402	0.30267
104	C	0.367511	0.773109	0.635967
105	C	0.223798	0.593787	0.302804
106	O	0.330538	0.787618	0.307754
107	O	0.209282	0.542311	0.307976
108	O	0.454633	0.66638	0.307701
109	C	0.718575	0.363549	0.373752
110	N	0.686713	0.384894	0.373652
111	C	0.633335	0.354388	0.706978
112	N	0.611991	0.301184	0.373543
113	C	0.642497	0.278315	0.373636
114	N	0.695701	0.310174	0.373642
115	C	0.600416	0.376809	0.37198
116	C	0.620091	0.22298	0.705272
117	C	0.773921	0.396463	0.372186
118	O	0.652976	0.203576	0.37853
119	O	0.793272	0.448767	0.378633
120	O	0.548125	0.343914	0.378554
121	C	0.586664	0.448668	0.351793
122	C	0.589104	0.47316	0.644037
123	C	0.555935	0.494029	0.635475
124	C	0.520622	0.492404	0.335015
125	C	0.519422	0.469375	0.376658
126	C	0.551852	0.447576	0.384855
127	H	0.494232	0.467435	0.401144
128	H	0.550243	0.431233	0.415289
129	C	0.487479	0.513935	0.659838
130	C	0.454373	0.498409	0.621991
131	C	0.421242	0.519463	0.613895
132	C	0.421675	0.557893	0.642537
133	C	0.454266	0.572891	0.347331
134	C	0.48661	0.551123	0.355949
135	H	0.453329	0.470838	0.600451
136	H	0.397444	0.507335	0.586419
137	H	0.453921	0.599118	0.369596
138	H	0.614187	0.47471	0.619624
139	H	0.510048	0.563227	0.383661
140	H	0.558438	0.511211	0.605249
141	N	0.388597	0.577354	0.634643
142	H	0.35256	0.551837	0.625981
143	N	0.618493	0.427657	0.359125
144	H	0.654625	0.447986	0.348215
145	C	0.548223	0.137342	0.351796
146	C	0.523661	0.115283	0.644063
147	C	0.502801	0.061251	0.635488
148	C	0.504509	0.027571	0.334988
149	C	0.527608	0.049404	0.376615
150	C	0.549394	0.103628	0.384828
151	H	0.529611	0.026162	0.401074
152	H	0.565787	0.118362	0.415246
153	C	0.48299	0.972902	0.659798
154	C	0.498426	0.955337	0.621885
155	C	0.477374	0.90116	0.613768
156	C	0.439027	0.863149	0.642457
157	C	0.424117	0.880721	0.347311
158	C	0.445888	0.934831	0.355949
159	H	0.525934	0.981875	0.600312
160	H	0.489433	0.889502	0.586243
161	H	0.39795	0.85414	0.369606
162	H	0.52205	0.138809	0.619677
163	H	0.433845	0.946151	0.383707
164	H	0.485564	0.046569	0.605279
165	N	0.419554	0.810616	0.634534
166	H	0.445058	0.800101	0.625819
167	N	0.569223	0.190178	0.359135
168	H	0.548867	0.205964	0.348258
169	C	0.859574	0.410282	0.352003
170	C	0.881651	0.407731	0.644293
171	C	0.935685	0.440909	0.635717
172	C	0.969348	0.47635	0.335197
173	C	0.947501	0.477667	0.376801
174	C	0.893271	0.445222	0.385011
175	H	0.970729	0.502951	0.401247
176	H	0.878528	0.446917	0.415416
177	C	0.024015	0.509508	0.660007
178	C	0.04157	0.542461	0.622071
179	C	0.095747	0.575584	0.613941
180	C	0.133765	0.575288	0.642647
181	C	0.116199	0.542851	0.34753
182	C	0.06209	0.510517	0.356179
183	H	0.015027	0.543399	0.600481
184	H	0.107403	0.599267	0.586393
185	H	0.142786	0.543293	0.369835
186	H	0.85814	0.382557	0.619923
187	H	0.050774	0.487184	0.383954
188	H	0.95038	0.438318	0.605529
189	N	0.186297	0.608332	0.63471
190	H	0.196809	0.644336	0.625948
191	N	0.806737	0.378437	0.359334
192	H	0.790962	0.342293	0.348468
193	C	0.278318	0.630316	0.632652
194	N	0.313769	0.61328	0.633021
195	C	0.366584	0.647368	0.965927
196	N	0.383626	0.699858	0.632931
197	C	0.349538	0.718585	0.632555
198	N	0.297051	0.683133	0.632991
199	C	0.403139	0.629402	0.636003
200	C	0.367511	0.773109	0.969302
201	C	0.223798	0.593787	0.636136
202	O	0.330538	0.787618	0.641087
203	O	0.209282	0.542311	0.64131
204	O	0.454633	0.66638	0.641034
205	C	0.718575	0.363549	0.707084
206	N	0.686713	0.384894	0.706984
207	C	0.633335	0.354388	0.040312
208	N	0.611991	0.301184	0.706875
209	C	0.642497	0.278315	0.706971
210	N	0.695701	0.310174	0.706974
211	C	0.600416	0.376809	0.705312
212	C	0.620091	0.22298	0.038606
213	C	0.773921	0.396463	0.705521
214	O	0.652976	0.203576	0.711862
215	O	0.793272	0.448767	0.711965
216	O	0.548125	0.343914	0.711889
217	C	0.586664	0.448668	0.685125
218	C	0.589104	0.47316	0.977369
219	C	0.555935	0.494029	0.968807
220	C	0.520622	0.492404	0.668347
221	C	0.519422	0.469375	0.70999
222	C	0.551852	0.447576	0.71819
223	H	0.494232	0.467435	0.73448
224	H	0.550243	0.431233	0.748625
225	C	0.487479	0.513935	0.993173
226	C	0.454373	0.498409	0.955323
227	C	0.421242	0.519463	0.947227
228	C	0.421675	0.557893	0.975873
229	C	0.454266	0.572891	0.680663
230	C	0.48661	0.551123	0.689282
231	H	0.453329	0.470838	0.933787
232	H	0.397444	0.507335	0.919751
233	H	0.453921	0.599118	0.702931
234	H	0.614187	0.47471	0.952959
235	H	0.510048	0.563227	0.716993
236	H	0.558438	0.511211	0.938581
237	N	0.388597	0.577354	0.967979
238	H	0.35256	0.551837	0.959317
239	N	0.618493	0.427657	0.692457
240	H	0.654625	0.447986	0.681547
241	C	0.548223	0.137342	0.685132
242	C	0.523661	0.115283	0.977395
243	C	0.502801	0.061251	0.96882
244	C	0.504509	0.027571	0.66832
245	C	0.527608	0.049404	0.709947
246	C	0.549394	0.103628	0.71816
247	H	0.529611	0.026162	0.73441
248	H	0.565787	0.118362	0.748581
249	C	0.48299	0.972902	0.99313
250	C	0.498426	0.955337	0.95522
251	C	0.477374	0.90116	0.9471
252	C	0.439027	0.863149	0.975789
253	C	0.424117	0.880721	0.680646
254	C	0.445888	0.934831	0.689285
255	H	0.525934	0.981875	0.933647
256	H	0.489433	0.889502	0.919575
257	H	0.39795	0.85414	0.702941
258	H	0.52205	0.138809	0.953012
259	H	0.433845	0.946151	0.71704
260	H	0.485564	0.046569	0.938611
261	N	0.419554	0.810616	0.967869
262	H	0.445058	0.800101	0.959151
263	N	0.569223	0.190178	0.69247
264	H	0.548867	0.205964	0.681594
265	C	0.859574	0.410282	0.685335
266	C	0.881651	0.407731	0.977628
267	C	0.935685	0.440909	0.969053
268	C	0.969348	0.47635	0.668533
269	C	0.947501	0.477667	0.710137
270	C	0.893271	0.445222	0.718343
271	H	0.970729	0.502951	0.734583
272	H	0.878528	0.446917	0.748748
273	C	0.024015	0.509508	0.993339
274	C	0.04157	0.542461	0.955403
275	C	0.095747	0.575584	0.947273
276	C	0.133765	0.575288	0.975982
277	C	0.116199	0.542851	0.680866
278	C	0.06209	0.510517	0.689514
279	H	0.015027	0.543399	0.933813
280	H	0.107403	0.599267	0.919728
281	H	0.142786	0.543293	0.703167
282	H	0.85814	0.382557	0.953255
283	H	0.050774	0.487184	0.717289
284	H	0.95038	0.438318	0.938861
285	N	0.186297	0.608332	0.968042
286	H	0.196809	0.644336	0.959284
287	N	0.806737	0.378437	0.692666
288	H	0.790962	0.342293	0.6818
