data_C216H135N81_2018-02-15_10:36:39
#******************************************
#
# CIF file created by Zeo++
# Zeo++ is an open source package to
# analyze microporous materials
#
#*******************************************

_cell_length_a		29.928   
_cell_length_b		29.928   
_cell_length_c		29.1024   
_cell_angle_alpha		90   
_cell_angle_beta		90   
_cell_angle_gamma		120   

_symmetry_space_group_name_H-M		'P1'
_symmetry_Int_Tables_number		1
_symmetry_cell_setting		Monoclinic

loop_
_symmetry_equiv_pos_as_xyz
'+x,+y,+z'

loop_
_atom_site_label
_atom_site_type_symbol
_atom_site_fract_x
_atom_site_fract_y
_atom_site_fract_z
1	N	0.159752	0.622645	0.002466
2	C	0.134054	0.57027	0.994995
3	N	0.158611	0.542996	0.004878
4	C	0.050502	0.528188	0.032608
5	C	0.05081	0.529735	0.282246
6	C	0.078947	0.542976	0.324401
7	H	0.069301	0.537054	0.063587
8	N	0.07532	0.542482	0.240949
9	H	0.056027	0.533323	0.212215
10	H	0.112693	0.560975	0.238682
11	N	0.159752	0.622645	0.335799
12	C	0.134054	0.57027	0.328328
13	N	0.158611	0.542996	0.338209
14	C	0.050502	0.528188	0.365942
15	C	0.05081	0.529735	0.615581
16	C	0.078947	0.542976	0.657735
17	H	0.069301	0.537054	0.396922
18	N	0.07532	0.542482	0.574282
19	H	0.056027	0.533323	0.545549
20	H	0.112693	0.560975	0.572017
21	N	0.159752	0.622645	0.669133
22	C	0.134054	0.57027	0.661663
23	N	0.158611	0.542996	0.671541
24	C	0.050502	0.528188	0.699275
25	C	0.05081	0.529735	0.948913
26	C	0.078947	0.542976	0.991068
27	H	0.069301	0.537054	0.730255
28	N	0.07532	0.542482	0.907618
29	H	0.056027	0.533323	0.878881
30	H	0.112693	0.560975	0.90535
31	C	0.208208	0.647662	0.020968
32	C	0.20699	0.566353	0.023464
33	N	0.228927	0.617676	0.030798
34	C	0.250468	0.518735	0.331827
35	C	0.275409	0.566759	0.070372
36	C	0.240157	0.546148	0.03279
37	H	0.227088	0.505192	0.303538
38	N	0.265212	0.586289	0.108733
39	H	0.289232	0.599257	0.134452
40	H	0.231123	0.581756	0.114054
41	C	0.252087	0.740287	0.329793
42	C	0.242169	0.701134	0.028933
43	C	0.275999	0.715521	0.067051
44	H	0.230045	0.73102	0.300685
45	H	0.268277	0.689131	0.092679
46	C	0.208208	0.647662	0.3543
47	C	0.20699	0.566353	0.356798
48	N	0.228927	0.617676	0.364131
49	C	0.250468	0.518735	0.665161
50	C	0.275409	0.566759	0.403705
51	C	0.240157	0.546148	0.366124
52	H	0.227088	0.505192	0.636871
53	N	0.265212	0.586289	0.442066
54	H	0.289232	0.599257	0.467785
55	H	0.231123	0.581756	0.447388
56	C	0.252087	0.740287	0.663126
57	C	0.242169	0.701134	0.362269
58	C	0.275999	0.715521	0.400386
59	H	0.230045	0.73102	0.634019
60	H	0.268277	0.689131	0.426012
61	C	0.208208	0.647662	0.687636
62	C	0.20699	0.566353	0.690131
63	N	0.228927	0.617676	0.697467
64	C	0.250468	0.518735	0.998497
65	C	0.275409	0.566759	0.737041
66	C	0.240157	0.546148	0.699457
67	H	0.227088	0.505192	0.970207
68	N	0.265212	0.586289	0.775402
69	H	0.289232	0.599257	0.801118
70	H	0.231123	0.581756	0.780721
71	C	0.252087	0.740287	0.996459
72	C	0.242169	0.701134	0.695601
73	C	0.275999	0.715521	0.733718
74	H	0.230045	0.73102	0.967352
75	H	0.268277	0.689131	0.759349
76	C	0.391031	0.568364	0.021371
77	N	0.415942	0.544851	0.002785
78	C	0.468306	0.571462	0.995205
79	C	0.4724	0.648399	0.02364
80	N	0.421112	0.619073	0.031119
81	C	0.470331	0.830204	0.02112
82	C	0.467531	0.904518	0.994865
83	N	0.415581	0.879972	0.004252
84	C	0.390324	0.831562	0.022812
85	N	0.419566	0.809555	0.030581
86	H	0.476642	0.558494	0.23889
87	H	0.471749	0.926124	0.238828
88	C	0.298262	0.519306	0.330594
89	C	0.337594	0.549014	0.029432
90	C	0.323382	0.568738	0.067464
91	H	0.307379	0.50623	0.301593
92	H	0.349893	0.587647	0.092951
93	C	0.470105	0.76248	0.067562
94	C	0.472148	0.716532	0.070605
95	H	0.451208	0.770174	0.092995
96	N	0.452714	0.686916	0.109026
97	H	0.439512	0.697881	0.134634
98	H	0.456946	0.657181	0.114349
99	C	0.299359	0.788041	0.330967
100	C	0.32203	0.763472	0.06989
101	C	0.336931	0.798536	0.032142
102	H	0.309347	0.811229	0.302536
103	N	0.351624	0.773823	0.108358
104	H	0.340444	0.749952	0.134193
105	H	0.381225	0.807907	0.113597
106	C	0.391031	0.568364	0.354706
107	N	0.415942	0.544851	0.336116
108	C	0.468306	0.571462	0.328538
109	C	0.4724	0.648399	0.356973
110	N	0.421112	0.619073	0.364454
111	C	0.470331	0.830204	0.354455
112	C	0.467531	0.904518	0.328196
113	N	0.415581	0.879972	0.337584
114	C	0.390324	0.831562	0.356145
115	N	0.419566	0.809555	0.363914
116	H	0.476642	0.558494	0.572223
117	H	0.471749	0.926124	0.572162
118	C	0.298262	0.519306	0.663927
119	C	0.337594	0.549014	0.362767
120	C	0.323382	0.568738	0.400798
121	H	0.307379	0.50623	0.634926
122	H	0.349893	0.587647	0.426284
123	C	0.470105	0.76248	0.400894
124	C	0.472148	0.716532	0.403939
125	H	0.451208	0.770174	0.426328
126	N	0.452714	0.686916	0.442361
127	H	0.439512	0.697881	0.467968
128	H	0.456946	0.657181	0.447684
129	C	0.299359	0.788041	0.664302
130	C	0.32203	0.763472	0.403224
131	C	0.336931	0.798536	0.365474
132	H	0.309347	0.811229	0.635871
133	N	0.351624	0.773823	0.441691
134	H	0.340444	0.749952	0.467528
135	H	0.381225	0.807907	0.446931
136	C	0.391031	0.568364	0.688038
137	N	0.415942	0.544851	0.669449
138	C	0.468306	0.571462	0.661872
139	C	0.4724	0.648399	0.69031
140	N	0.421112	0.619073	0.697787
141	C	0.470331	0.830204	0.687788
142	C	0.467531	0.904518	0.661532
143	N	0.415581	0.879972	0.670916
144	C	0.390324	0.831562	0.689482
145	N	0.419566	0.809555	0.697251
146	H	0.476642	0.558494	0.905556
147	H	0.471749	0.926124	0.905494
148	C	0.298262	0.519306	0.99726
149	C	0.337594	0.549014	0.6961
150	C	0.323382	0.568738	0.734131
151	H	0.307379	0.50623	0.968262
152	H	0.349893	0.587647	0.759617
153	C	0.470105	0.76248	0.73423
154	C	0.472148	0.716532	0.737271
155	H	0.451208	0.770174	0.759665
156	N	0.452714	0.686916	0.775694
157	H	0.439512	0.697881	0.8013
158	H	0.456946	0.657181	0.781017
159	C	0.299359	0.788041	0.997634
160	C	0.32203	0.763472	0.736557
161	C	0.336931	0.798536	0.698811
162	H	0.309347	0.811229	0.969204
163	N	0.351624	0.773823	0.775024
164	H	0.340444	0.749952	0.80086
165	H	0.381225	0.807907	0.780264
166	N	0.495672	0.623301	0.005046
167	N	0.494037	0.878722	0.002792
168	C	0.838024	0.383231	0.019735
169	N	0.88673	0.408231	0.001771
170	C	0.912495	0.460575	0.994112
171	N	0.887895	0.4879	0.003651
172	C	0.839241	0.464522	0.021679
173	N	0.81722	0.413223	0.029142
174	C	0.655358	0.4624	0.019696
175	N	0.630315	0.486071	0.001754
176	C	0.577948	0.459545	0.994222
177	N	0.550663	0.407629	0.00383
178	C	0.574031	0.382371	0.021926
179	N	0.625372	0.41163	0.029203
180	C	0.576228	0.200484	0.019796
181	N	0.552715	0.151834	0.001651
182	C	0.579387	0.126082	0.994377
183	N	0.631216	0.150718	0.004266
184	C	0.656334	0.199329	0.022323
185	N	0.626979	0.221314	0.029491
186	C	0.996159	0.501272	0.032868
187	C	0.96757	0.487745	0.324892
188	C	0.995701	0.502376	0.283227
189	H	0.97748	0.491561	0.063891
190	H	0.97557	0.4929	0.252963
191	C	0.5108	0.530375	0.032754
192	C	0.537709	0.502939	0.032987
193	C	0.550739	0.487406	0.325009
194	C	0.53562	0.500451	0.28337
195	C	0.508281	0.528222	0.282416
196	C	0.495539	0.54359	0.324573
197	H	0.502293	0.540642	0.063736
198	H	0.547772	0.494304	0.063994
199	H	0.544751	0.48947	0.253103
200	N	0.495102	0.539581	0.24114
201	H	0.503953	0.52916	0.212402
202	C	0.513758	0.987937	0.032389
203	C	0.541208	0.04228	0.032742
204	C	0.551714	0.071004	0.325019
205	C	0.533556	0.042988	0.283505
206	C	0.505955	0.987879	0.2824
207	C	0.495695	0.959614	0.324307
208	H	0.506877	0.969055	0.06322
209	H	0.553248	0.06086	0.063685
210	H	0.540906	0.063207	0.253414
211	N	0.490246	0.963488	0.241202
212	H	0.497602	0.982864	0.212609
213	C	0.520114	0.739369	0.332015
214	C	0.51943	0.786536	0.330626
215	C	0.48978	0.796271	0.029452
216	C	0.492655	0.701755	0.033057
217	H	0.533412	0.729446	0.303613
218	H	0.532381	0.80859	0.301534
219	C	0.795919	0.51218	0.330075
220	C	0.748035	0.511447	0.328816
221	C	0.708796	0.4819	0.027794
222	C	0.723097	0.462366	0.06589
223	C	0.771105	0.464438	0.068808
224	C	0.806238	0.484882	0.031149
225	H	0.819019	0.525375	0.301593
226	H	0.738792	0.524283	0.299733
227	H	0.696619	0.443545	0.091423
228	N	0.781445	0.4451	0.107212
229	H	0.757371	0.431936	0.132886
230	H	0.815435	0.449348	0.112434
231	C	0.526489	0.291317	0.330153
232	C	0.527118	0.244119	0.328904
233	C	0.556731	0.234459	0.027821
234	C	0.576311	0.268333	0.065905
235	C	0.574272	0.314295	0.068823
236	C	0.553731	0.328974	0.031211
237	H	0.513048	0.301203	0.301826
238	H	0.514181	0.221994	0.299857
239	H	0.595184	0.260723	0.091423
240	N	0.593718	0.343985	0.107215
241	H	0.606665	0.332931	0.132947
242	H	0.589185	0.373545	0.112519
243	C	0.747285	0.242566	0.330711
244	C	0.79443	0.290436	0.329283
245	C	0.804152	0.329835	0.028086
246	C	0.770361	0.315721	0.066201
247	C	0.724401	0.267748	0.069251
248	C	0.709674	0.232412	0.03176
249	H	0.737365	0.219317	0.302327
250	H	0.81647	0.299532	0.300183
251	H	0.778036	0.342325	0.091617
252	N	0.69472	0.257618	0.107624
253	H	0.705646	0.281821	0.133203
254	H	0.664953	0.223671	0.112938
255	N	0.495672	0.623301	0.338378
256	N	0.494037	0.878722	0.336123
257	C	0.838024	0.383231	0.35307
258	N	0.88673	0.408231	0.335105
259	C	0.912495	0.460575	0.327446
260	N	0.887895	0.4879	0.336982
261	C	0.839241	0.464522	0.355015
262	N	0.81722	0.413223	0.362475
263	C	0.655358	0.4624	0.353029
264	N	0.630315	0.486071	0.335088
265	C	0.577948	0.459545	0.327554
266	N	0.550663	0.407629	0.337161
267	C	0.574031	0.382371	0.355259
268	N	0.625372	0.41163	0.362537
269	C	0.576228	0.200484	0.353132
270	N	0.552715	0.151834	0.334983
271	C	0.579387	0.126082	0.32771
272	N	0.631216	0.150718	0.337598
273	C	0.656334	0.199329	0.355657
274	N	0.626979	0.221314	0.362825
275	C	0.996159	0.501272	0.366203
276	C	0.96757	0.487745	0.658226
277	C	0.995701	0.502376	0.61656
278	H	0.97748	0.491561	0.397224
279	H	0.97557	0.4929	0.586298
280	C	0.5108	0.530375	0.366089
281	C	0.537709	0.502939	0.36632
282	C	0.550739	0.487406	0.658343
283	C	0.53562	0.500451	0.616704
284	C	0.508281	0.528222	0.615749
285	C	0.495539	0.54359	0.657907
286	H	0.502293	0.540642	0.39707
287	H	0.547772	0.494304	0.397327
288	H	0.544751	0.48947	0.586435
289	N	0.495102	0.539581	0.574474
290	H	0.503953	0.52916	0.545734
291	C	0.513758	0.987937	0.365722
292	C	0.541208	0.04228	0.366076
293	C	0.551714	0.071004	0.658354
294	C	0.533556	0.042988	0.616838
295	C	0.505955	0.987879	0.615732
296	C	0.495695	0.959614	0.657642
297	H	0.506877	0.969055	0.396554
298	H	0.553248	0.06086	0.397018
299	H	0.540906	0.063207	0.586748
300	N	0.490246	0.963488	0.574536
301	H	0.497602	0.982864	0.545944
302	C	0.520114	0.739369	0.66535
303	C	0.51943	0.786536	0.663961
304	C	0.48978	0.796271	0.362787
305	C	0.492655	0.701755	0.366392
306	H	0.533412	0.729446	0.636946
307	H	0.532381	0.80859	0.634868
308	C	0.795919	0.51218	0.663408
309	C	0.748035	0.511447	0.662151
310	C	0.708796	0.4819	0.361128
311	C	0.723097	0.462366	0.399224
312	C	0.771105	0.464438	0.402141
313	C	0.806238	0.484882	0.364481
314	H	0.819019	0.525375	0.634926
315	H	0.738792	0.524283	0.633067
316	H	0.696619	0.443545	0.424758
317	N	0.781445	0.4451	0.440547
318	H	0.757371	0.431936	0.466219
319	H	0.815435	0.449348	0.445767
320	C	0.526489	0.291317	0.663487
321	C	0.527118	0.244119	0.66224
322	C	0.556731	0.234459	0.361155
323	C	0.576311	0.268333	0.399238
324	C	0.574272	0.314295	0.402155
325	C	0.553731	0.328974	0.364547
326	H	0.513048	0.301203	0.63516
327	H	0.514181	0.221994	0.633191
328	H	0.595184	0.260723	0.424758
329	N	0.593718	0.343985	0.440547
330	H	0.606665	0.332931	0.46628
331	H	0.589185	0.373545	0.445853
332	C	0.747285	0.242566	0.664044
333	C	0.79443	0.290436	0.662618
334	C	0.804152	0.329835	0.36142
335	C	0.770361	0.315721	0.399533
336	C	0.724401	0.267748	0.402585
337	C	0.709674	0.232412	0.365093
338	H	0.737365	0.219317	0.635661
339	H	0.81647	0.299532	0.633517
340	H	0.778036	0.342325	0.424951
341	N	0.69472	0.257618	0.440959
342	H	0.705646	0.281821	0.466535
343	H	0.664953	0.223671	0.446272
344	N	0.495672	0.623301	0.671713
345	N	0.494037	0.878722	0.669456
346	C	0.838024	0.383231	0.686403
347	N	0.88673	0.408231	0.668439
348	C	0.912495	0.460575	0.660779
349	N	0.887895	0.4879	0.670315
350	C	0.839241	0.464522	0.688348
351	N	0.81722	0.413223	0.695811
352	C	0.655358	0.4624	0.686365
353	N	0.630315	0.486071	0.668421
354	C	0.577948	0.459545	0.660886
355	N	0.550663	0.407629	0.670493
356	C	0.574031	0.382371	0.688595
357	N	0.625372	0.41163	0.695873
358	C	0.576228	0.200484	0.686465
359	N	0.552715	0.151834	0.668318
360	C	0.579387	0.126082	0.661044
361	N	0.631216	0.150718	0.670933
362	C	0.656334	0.199329	0.68899
363	N	0.626979	0.221314	0.696158
364	C	0.996159	0.501272	0.699536
365	C	0.96757	0.487745	0.991559
366	C	0.995701	0.502376	0.949896
367	H	0.97748	0.491561	0.730557
368	H	0.97557	0.4929	0.919631
369	C	0.5108	0.530375	0.699422
370	C	0.537709	0.502939	0.699656
371	C	0.550739	0.487406	0.991676
372	C	0.53562	0.500451	0.950037
373	C	0.508281	0.528222	0.949082
374	C	0.495539	0.54359	0.99124
375	H	0.502293	0.540642	0.730402
376	H	0.547772	0.494304	0.730664
377	H	0.544751	0.48947	0.919771
378	N	0.495102	0.539581	0.907807
379	H	0.503953	0.52916	0.87907
380	C	0.513758	0.987937	0.699058
381	C	0.541208	0.04228	0.699409
382	C	0.551714	0.071004	0.991686
383	C	0.533556	0.042988	0.950171
384	C	0.505955	0.987879	0.949068
385	C	0.495695	0.959614	0.990975
386	H	0.506877	0.969055	0.729887
387	H	0.553248	0.06086	0.730354
388	H	0.540906	0.063207	0.920081
389	N	0.490246	0.963488	0.907869
390	H	0.497602	0.982864	0.879277
391	C	0.520114	0.739369	0.998682
392	C	0.51943	0.786536	0.997294
393	C	0.48978	0.796271	0.69612
394	C	0.492655	0.701755	0.699725
395	H	0.533412	0.729446	0.970279
396	H	0.532381	0.80859	0.968204
397	C	0.795919	0.51218	0.996744
398	C	0.748035	0.511447	0.995483
399	C	0.708796	0.4819	0.694461
400	C	0.723097	0.462366	0.732557
401	C	0.771105	0.464438	0.735474
402	C	0.806238	0.484882	0.697818
403	H	0.819019	0.525375	0.968259
404	H	0.738792	0.524283	0.9664
405	H	0.696619	0.443545	0.758091
406	N	0.781445	0.4451	0.77388
407	H	0.757371	0.431936	0.799555
408	H	0.815435	0.449348	0.779103
409	C	0.526489	0.291317	0.99682
410	C	0.527118	0.244119	0.995573
411	C	0.556731	0.234459	0.694488
412	C	0.576311	0.268333	0.732574
413	C	0.574272	0.314295	0.735491
414	C	0.553731	0.328974	0.697879
415	H	0.513048	0.301203	0.968492
416	H	0.514181	0.221994	0.966524
417	H	0.595184	0.260723	0.758091
418	N	0.593718	0.343985	0.773883
419	H	0.606665	0.332931	0.799613
420	H	0.589185	0.373545	0.779185
421	C	0.747285	0.242566	0.99738
422	C	0.79443	0.290436	0.995951
423	C	0.804152	0.329835	0.694753
424	C	0.770361	0.315721	0.73287
425	C	0.724401	0.267748	0.735917
426	C	0.709674	0.232412	0.698426
427	H	0.737365	0.219317	0.968994
428	H	0.81647	0.299532	0.96685
429	H	0.778036	0.342325	0.758283
430	N	0.69472	0.257618	0.774292
431	H	0.705646	0.281821	0.799871
432	H	0.664953	0.223671	0.779605
