data_C288H144N72_2018-02-15_10:40:27
#******************************************
#
# CIF file created by Zeo++
# Zeo++ is an open source package to
# analyze microporous materials
#
#*******************************************

_cell_length_a		29.1989   
_cell_length_b		29.1989   
_cell_length_c		29.4986   
_cell_angle_alpha		90   
_cell_angle_beta		90   
_cell_angle_gamma		120   

_symmetry_space_group_name_H-M		'P1'
_symmetry_Int_Tables_number		1
_symmetry_cell_setting		Monoclinic

loop_
_symmetry_equiv_pos_as_xyz
'+x,+y,+z'

loop_
_atom_site_label
_atom_site_type_symbol
_atom_site_fract_x
_atom_site_fract_y
_atom_site_fract_z
1	C	0.12331	0.313783	0.00742
2	C	0.151577	0.369674	0.007701
3	C	0.151572	0.286152	0.007684
4	H	0.131301	0.245615	0.008478
5	H	0.131311	0.389946	0.008481
6	C	0.040569	0.272411	0.051396
7	C	0.067818	0.286036	0.009668
8	N	0.038686	0.271467	0.304251
9	H	0.060695	0.282475	0.081495
10	C	0.12331	0.313783	0.340755
11	C	0.151577	0.369674	0.341033
12	C	0.151572	0.286152	0.341019
13	H	0.131301	0.245615	0.341809
14	H	0.131311	0.389946	0.341816
15	C	0.040569	0.272411	0.38473
16	C	0.067818	0.286036	0.343002
17	N	0.038686	0.271467	0.637586
18	H	0.060695	0.282475	0.41483
19	C	0.12331	0.313783	0.674086
20	C	0.151577	0.369674	0.674367
21	C	0.151572	0.286152	0.67435
22	H	0.131301	0.245615	0.675143
23	H	0.131311	0.389946	0.675147
24	C	0.040569	0.272411	0.718064
25	C	0.067818	0.286036	0.676337
26	N	0.038686	0.271467	0.970917
27	H	0.060695	0.282475	0.74816
28	C	0.12331	0.813781	0.00742
29	C	0.151579	0.869676	0.007701
30	C	0.151571	0.786151	0.007684
31	H	0.131302	0.745616	0.008478
32	H	0.131313	0.889947	0.008481
33	C	0.040571	0.772412	0.051396
34	C	0.067819	0.786036	0.009668
35	N	0.038688	0.771467	0.304251
36	H	0.060696	0.782477	0.081495
37	C	0.12331	0.813781	0.340755
38	C	0.151579	0.869676	0.341033
39	C	0.151571	0.786151	0.341019
40	H	0.131302	0.745616	0.341809
41	H	0.131313	0.889947	0.341816
42	C	0.040571	0.772412	0.38473
43	C	0.067819	0.786036	0.343002
44	N	0.038688	0.771467	0.637586
45	H	0.060696	0.782477	0.41483
46	C	0.12331	0.813781	0.674086
47	C	0.151579	0.869676	0.674367
48	C	0.151571	0.786151	0.67435
49	H	0.131302	0.745616	0.675143
50	H	0.131313	0.889947	0.675147
51	C	0.040571	0.772412	0.718064
52	C	0.067819	0.786036	0.676337
53	N	0.038688	0.771467	0.970917
54	H	0.060696	0.782477	0.74816
55	C	0.207469	0.397936	0.007434
56	C	0.207464	0.313777	0.007423
57	C	0.207469	0.397936	0.340765
58	C	0.207464	0.313777	0.340755
59	C	0.207469	0.397936	0.674099
60	C	0.207464	0.313777	0.674089
61	C	0.20747	0.897935	0.007434
62	C	0.207465	0.813778	0.007423
63	C	0.20747	0.897935	0.340765
64	C	0.207465	0.813778	0.340755
65	C	0.20747	0.897935	0.674099
66	C	0.207465	0.813778	0.674089
67	C	0.235094	0.369669	0.007705
68	H	0.249865	0.127062	0.008474
69	C	0.248837	0.272409	0.051397
70	C	0.235203	0.286025	0.00967
71	N	0.249771	0.27146	0.304253
72	H	0.238775	0.282473	0.081496
73	C	0.248843	0.480678	0.051401
74	C	0.235219	0.453427	0.009675
75	N	0.249776	0.482556	0.304256
76	H	0.238786	0.460557	0.081501
77	C	0.235094	0.369669	0.341036
78	H	0.249865	0.127062	0.341809
79	C	0.248837	0.272409	0.38473
80	C	0.235203	0.286025	0.343002
81	N	0.249771	0.27146	0.637586
82	H	0.238775	0.282473	0.41483
83	C	0.248843	0.480678	0.384733
84	C	0.235219	0.453427	0.343009
85	N	0.249776	0.482556	0.637589
86	H	0.238786	0.460557	0.414833
87	C	0.235094	0.369669	0.674371
88	H	0.249865	0.127062	0.675143
89	C	0.248837	0.272409	0.718064
90	C	0.235203	0.286025	0.676337
91	N	0.249771	0.27146	0.97092
92	H	0.238775	0.282473	0.748164
93	C	0.248843	0.480678	0.718068
94	C	0.235219	0.453427	0.67634
95	N	0.249776	0.482556	0.970923
96	H	0.238786	0.460557	0.748167
97	C	0.235095	0.869668	0.007705
98	H	0.249865	0.627061	0.008474
99	C	0.248837	0.772408	0.051397
100	C	0.235204	0.786024	0.00967
101	N	0.249771	0.771459	0.304253
102	H	0.238776	0.782473	0.081496
103	C	0.248846	0.980681	0.051401
104	C	0.23522	0.953426	0.009675
105	N	0.249776	0.982556	0.304256
106	H	0.238786	0.960556	0.081501
107	C	0.235095	0.869668	0.341036
108	H	0.249865	0.627061	0.341809
109	C	0.248837	0.772408	0.38473
110	C	0.235204	0.786024	0.343002
111	N	0.249771	0.771459	0.637586
112	H	0.238776	0.782473	0.41483
113	C	0.248846	0.980681	0.384733
114	C	0.23522	0.953426	0.343009
115	N	0.249776	0.982556	0.637589
116	H	0.238786	0.960556	0.414833
117	C	0.235095	0.869668	0.674371
118	H	0.249865	0.627061	0.675143
119	C	0.248837	0.772408	0.718064
120	C	0.235204	0.786024	0.676337
121	N	0.249771	0.771459	0.97092
122	H	0.238776	0.782473	0.748164
123	C	0.248846	0.980681	0.718068
124	C	0.23522	0.953426	0.67634
125	N	0.249776	0.982556	0.970923
126	H	0.238786	0.960556	0.748167
127	H	0.275632	0.389935	0.008484
128	C	0.402187	0.203214	0.00741
129	C	0.373917	0.147323	0.007695
130	C	0.318025	0.119059	0.00741
131	C	0.290402	0.147328	0.007678
132	C	0.31803	0.20322	0.007413
133	C	0.373923	0.230843	0.007684
134	H	0.394193	0.27138	0.008481
135	H	0.394183	0.127052	0.008478
136	C	0.290289	0.230969	0.009665
137	C	0.276665	0.24459	0.051395
138	H	0.286733	0.234529	0.081492
139	N	0.275713	0.245529	0.304251
140	C	0.290275	0.063568	0.009664
141	C	0.276662	0.036327	0.051395
142	H	0.286728	0.056457	0.081492
143	N	0.275706	0.034429	0.304251
144	C	0.457677	0.230959	0.009664
145	C	0.484922	0.244583	0.051394
146	H	0.464793	0.234519	0.081491
147	N	0.486813	0.245529	0.304249
148	H	0.275632	0.389935	0.341819
149	C	0.402187	0.203214	0.340745
150	C	0.373917	0.147323	0.341026
151	C	0.318025	0.119059	0.340741
152	C	0.290402	0.147328	0.341013
153	C	0.31803	0.20322	0.340745
154	C	0.373923	0.230843	0.341016
155	H	0.394193	0.27138	0.341813
156	H	0.394183	0.127052	0.341813
157	C	0.290289	0.230969	0.342999
158	C	0.276665	0.24459	0.38473
159	H	0.286733	0.234529	0.414826
160	N	0.275713	0.245529	0.637582
161	C	0.290275	0.063568	0.342999
162	C	0.276662	0.036327	0.38473
163	H	0.286728	0.056457	0.414826
164	N	0.275706	0.034429	0.637586
165	C	0.457677	0.230959	0.342999
166	C	0.484922	0.244583	0.384726
167	H	0.464793	0.234519	0.414826
168	N	0.486813	0.245529	0.637582
169	H	0.275632	0.389935	0.67515
170	C	0.402187	0.203214	0.674079
171	C	0.373917	0.147323	0.67436
172	C	0.318025	0.119059	0.674076
173	C	0.290402	0.147328	0.674347
174	C	0.31803	0.20322	0.674079
175	C	0.373923	0.230843	0.67435
176	H	0.394193	0.27138	0.675147
177	H	0.394183	0.127052	0.675143
178	C	0.290289	0.230969	0.676333
179	C	0.276665	0.24459	0.718061
180	H	0.286733	0.234529	0.74816
181	N	0.275713	0.245529	0.970917
182	C	0.290275	0.063568	0.67633
183	C	0.276662	0.036327	0.718064
184	H	0.286728	0.056457	0.748157
185	N	0.275706	0.034429	0.970917
186	C	0.457677	0.230959	0.67633
187	C	0.484922	0.244583	0.718061
188	H	0.464793	0.234519	0.748157
189	N	0.486813	0.245529	0.970917
190	H	0.275633	0.889935	0.008484
191	C	0.402187	0.703215	0.00741
192	C	0.373918	0.647324	0.007695
193	C	0.318025	0.619057	0.00741
194	C	0.290403	0.647328	0.007678
195	C	0.318031	0.703219	0.007413
196	C	0.373923	0.730842	0.007684
197	H	0.394194	0.77138	0.008481
198	H	0.394184	0.627053	0.008478
199	C	0.290289	0.730968	0.009665
200	C	0.276667	0.744592	0.051395
201	H	0.286735	0.734531	0.081492
202	N	0.275713	0.745529	0.304251
203	C	0.290277	0.56357	0.009664
204	C	0.276663	0.536327	0.051395
205	H	0.286728	0.556456	0.081492
206	N	0.275707	0.534429	0.304251
207	C	0.457678	0.73096	0.009664
208	C	0.484923	0.744584	0.051394
209	H	0.464795	0.734519	0.081491
210	N	0.486814	0.745529	0.304249
211	H	0.275633	0.889935	0.341819
212	C	0.402187	0.703215	0.340745
213	C	0.373918	0.647324	0.341026
214	C	0.318025	0.619057	0.340741
215	C	0.290403	0.647328	0.341013
216	C	0.318031	0.703219	0.340745
217	C	0.373923	0.730842	0.341016
218	H	0.394194	0.77138	0.341813
219	H	0.394184	0.627053	0.341813
220	C	0.290289	0.730968	0.342999
221	C	0.276667	0.744592	0.38473
222	H	0.286735	0.734531	0.414826
223	N	0.275713	0.745529	0.637582
224	C	0.290277	0.56357	0.342999
225	C	0.276663	0.536327	0.38473
226	H	0.286728	0.556456	0.414826
227	N	0.275707	0.534429	0.637586
228	C	0.457678	0.73096	0.342999
229	C	0.484923	0.744584	0.384726
230	H	0.464795	0.734519	0.414826
231	N	0.486814	0.745529	0.637582
232	H	0.275633	0.889935	0.67515
233	C	0.402187	0.703215	0.674079
234	C	0.373918	0.647324	0.67436
235	C	0.318025	0.619057	0.674076
236	C	0.290403	0.647328	0.674347
237	C	0.318031	0.703219	0.674079
238	C	0.373923	0.730842	0.67435
239	H	0.394194	0.77138	0.675147
240	H	0.394184	0.627053	0.675143
241	C	0.290289	0.730968	0.676333
242	C	0.276667	0.744592	0.718061
243	H	0.286735	0.734531	0.74816
244	N	0.275713	0.745529	0.970917
245	C	0.290277	0.56357	0.67633
246	C	0.276663	0.536327	0.718064
247	H	0.286728	0.556456	0.748157
248	N	0.275707	0.534429	0.970917
249	C	0.457678	0.73096	0.67633
250	C	0.484923	0.744584	0.718061
251	H	0.464795	0.734519	0.748157
252	N	0.486814	0.745529	0.970917
253	C	0.62331	0.313783	0.00742
254	C	0.651578	0.369674	0.007701
255	C	0.70747	0.397936	0.007434
256	C	0.735096	0.369669	0.007705
257	C	0.707465	0.313777	0.007423
258	C	0.651572	0.286152	0.007684
259	H	0.775634	0.389935	0.008484
260	H	0.631303	0.245615	0.008478
261	H	0.631312	0.389946	0.008481
262	C	0.902186	0.203214	0.00741
263	C	0.873918	0.147323	0.007695
264	C	0.818024	0.119059	0.00741
265	C	0.790403	0.147328	0.007678
266	C	0.818031	0.20322	0.007413
267	C	0.873923	0.230843	0.007684
268	H	0.749865	0.127062	0.008474
269	H	0.894195	0.27138	0.008481
270	H	0.894184	0.127052	0.008478
271	C	0.790291	0.230969	0.009665
272	C	0.776666	0.24459	0.051395
273	C	0.748838	0.272409	0.051397
274	C	0.735203	0.286025	0.00967
275	N	0.749771	0.27146	0.304253
276	H	0.738776	0.282473	0.081496
277	H	0.786735	0.234529	0.081492
278	N	0.775714	0.245529	0.304251
279	C	0.790275	0.063568	0.009664
280	C	0.776661	0.036327	0.051395
281	C	0.748845	0.480678	0.051401
282	C	0.735219	0.453427	0.009675
283	N	0.749777	0.482556	0.304256
284	H	0.738785	0.460557	0.081501
285	H	0.78673	0.056457	0.081492
286	N	0.775705	0.034429	0.304251
287	C	0.957679	0.230959	0.009664
288	C	0.984924	0.244583	0.051394
289	C	0.540571	0.272411	0.051396
290	C	0.567819	0.286036	0.009668
291	N	0.538688	0.271467	0.304251
292	H	0.560696	0.282475	0.081495
293	H	0.964795	0.234519	0.081491
294	N	0.986815	0.245529	0.304249
295	C	0.62331	0.313783	0.340755
296	C	0.651578	0.369674	0.341033
297	C	0.70747	0.397936	0.340765
298	C	0.735096	0.369669	0.341036
299	C	0.707465	0.313777	0.340755
300	C	0.651572	0.286152	0.341019
301	H	0.775634	0.389935	0.341819
302	H	0.631303	0.245615	0.341809
303	H	0.631312	0.389946	0.341816
304	C	0.902186	0.203214	0.340745
305	C	0.873918	0.147323	0.341026
306	C	0.818024	0.119059	0.340741
307	C	0.790403	0.147328	0.341013
308	C	0.818031	0.20322	0.340745
309	C	0.873923	0.230843	0.341016
310	H	0.749865	0.127062	0.341809
311	H	0.894195	0.27138	0.341813
312	H	0.894184	0.127052	0.341813
313	C	0.790291	0.230969	0.342999
314	C	0.776666	0.24459	0.38473
315	C	0.748838	0.272409	0.38473
316	C	0.735203	0.286025	0.343002
317	N	0.749771	0.27146	0.637586
318	H	0.738776	0.282473	0.41483
319	H	0.786735	0.234529	0.414826
320	N	0.775714	0.245529	0.637582
321	C	0.790275	0.063568	0.342999
322	C	0.776661	0.036327	0.38473
323	C	0.748845	0.480678	0.384733
324	C	0.735219	0.453427	0.343009
325	N	0.749777	0.482556	0.637589
326	H	0.738785	0.460557	0.414833
327	H	0.78673	0.056457	0.414826
328	N	0.775705	0.034429	0.637586
329	C	0.957679	0.230959	0.342999
330	C	0.984924	0.244583	0.384726
331	C	0.540571	0.272411	0.38473
332	C	0.567819	0.286036	0.343002
333	N	0.538688	0.271467	0.637586
334	H	0.560696	0.282475	0.41483
335	H	0.964795	0.234519	0.414826
336	N	0.986815	0.245529	0.637582
337	C	0.62331	0.313783	0.674086
338	C	0.651578	0.369674	0.674367
339	C	0.70747	0.397936	0.674099
340	C	0.735096	0.369669	0.674371
341	C	0.707465	0.313777	0.674089
342	C	0.651572	0.286152	0.67435
343	H	0.775634	0.389935	0.67515
344	H	0.631303	0.245615	0.675143
345	H	0.631312	0.389946	0.675147
346	C	0.902186	0.203214	0.674079
347	C	0.873918	0.147323	0.67436
348	C	0.818024	0.119059	0.674076
349	C	0.790403	0.147328	0.674347
350	C	0.818031	0.20322	0.674079
351	C	0.873923	0.230843	0.67435
352	H	0.749865	0.127062	0.675143
353	H	0.894195	0.27138	0.675147
354	H	0.894184	0.127052	0.675143
355	C	0.790291	0.230969	0.676333
356	C	0.776666	0.24459	0.718061
357	C	0.748838	0.272409	0.718064
358	C	0.735203	0.286025	0.676337
359	N	0.749771	0.27146	0.97092
360	H	0.738776	0.282473	0.748164
361	H	0.786735	0.234529	0.74816
362	N	0.775714	0.245529	0.970917
363	C	0.790275	0.063568	0.67633
364	C	0.776661	0.036327	0.718064
365	C	0.748845	0.480678	0.718068
366	C	0.735219	0.453427	0.67634
367	N	0.749777	0.482556	0.970923
368	H	0.738785	0.460557	0.748167
369	H	0.78673	0.056457	0.748157
370	N	0.775705	0.034429	0.970917
371	C	0.957679	0.230959	0.67633
372	C	0.984924	0.244583	0.718061
373	C	0.540571	0.272411	0.718064
374	C	0.567819	0.286036	0.676337
375	N	0.538688	0.271467	0.970917
376	H	0.560696	0.282475	0.74816
377	H	0.964795	0.234519	0.748157
378	N	0.986815	0.245529	0.970917
379	C	0.62331	0.813781	0.00742
380	C	0.651579	0.869676	0.007701
381	C	0.70747	0.897935	0.007434
382	C	0.735095	0.869668	0.007705
383	C	0.707466	0.813778	0.007423
384	C	0.651572	0.786151	0.007684
385	H	0.775633	0.889935	0.008484
386	H	0.631303	0.745616	0.008478
387	H	0.631313	0.889947	0.008481
388	C	0.902188	0.703215	0.00741
389	C	0.87392	0.647324	0.007695
390	C	0.818025	0.619057	0.00741
391	C	0.790402	0.647328	0.007678
392	C	0.818032	0.703219	0.007413
393	C	0.873924	0.730842	0.007684
394	H	0.749867	0.627061	0.008474
395	H	0.894193	0.77138	0.008481
396	H	0.894187	0.627053	0.008478
397	C	0.790289	0.730968	0.009665
398	C	0.776669	0.744592	0.051395
399	C	0.748839	0.772408	0.051397
400	C	0.735204	0.786024	0.00967
401	N	0.749772	0.771459	0.304253
402	H	0.738778	0.782473	0.081496
403	H	0.786735	0.734531	0.081492
404	N	0.775712	0.745529	0.304251
405	C	0.790278	0.56357	0.009664
406	C	0.776663	0.536327	0.051395
407	C	0.748846	0.980681	0.051401
408	C	0.73522	0.953426	0.009675
409	N	0.749777	0.982556	0.304256
410	H	0.738787	0.960556	0.081501
411	H	0.786727	0.556456	0.081492
412	N	0.775707	0.534429	0.304251
413	C	0.957678	0.73096	0.009664
414	C	0.984922	0.744584	0.051394
415	C	0.540571	0.772412	0.051396
416	C	0.56782	0.786036	0.009668
417	N	0.538687	0.771467	0.304251
418	H	0.560697	0.782477	0.081495
419	H	0.964794	0.734519	0.081491
420	N	0.986816	0.745529	0.304249
421	C	0.62331	0.813781	0.340755
422	C	0.651579	0.869676	0.341033
423	C	0.70747	0.897935	0.340765
424	C	0.735095	0.869668	0.341036
425	C	0.707466	0.813778	0.340755
426	C	0.651572	0.786151	0.341019
427	H	0.775633	0.889935	0.341819
428	H	0.631303	0.745616	0.341809
429	H	0.631313	0.889947	0.341816
430	C	0.902188	0.703215	0.340745
431	C	0.87392	0.647324	0.341026
432	C	0.818025	0.619057	0.340741
433	C	0.790402	0.647328	0.341013
434	C	0.818032	0.703219	0.340745
435	C	0.873924	0.730842	0.341016
436	H	0.749867	0.627061	0.341809
437	H	0.894193	0.77138	0.341813
438	H	0.894187	0.627053	0.341813
439	C	0.790289	0.730968	0.342999
440	C	0.776669	0.744592	0.38473
441	C	0.748839	0.772408	0.38473
442	C	0.735204	0.786024	0.343002
443	N	0.749772	0.771459	0.637586
444	H	0.738778	0.782473	0.41483
445	H	0.786735	0.734531	0.414826
446	N	0.775712	0.745529	0.637582
447	C	0.790278	0.56357	0.342999
448	C	0.776663	0.536327	0.38473
449	C	0.748846	0.980681	0.384733
450	C	0.73522	0.953426	0.343009
451	N	0.749777	0.982556	0.637589
452	H	0.738787	0.960556	0.414833
453	H	0.786727	0.556456	0.414826
454	N	0.775707	0.534429	0.637586
455	C	0.957678	0.73096	0.342999
456	C	0.984922	0.744584	0.384726
457	C	0.540571	0.772412	0.38473
458	C	0.56782	0.786036	0.343002
459	N	0.538687	0.771467	0.637586
460	H	0.560697	0.782477	0.41483
461	H	0.964794	0.734519	0.414826
462	N	0.986816	0.745529	0.637582
463	C	0.62331	0.813781	0.674086
464	C	0.651579	0.869676	0.674367
465	C	0.70747	0.897935	0.674099
466	C	0.735095	0.869668	0.674371
467	C	0.707466	0.813778	0.674089
468	C	0.651572	0.786151	0.67435
469	H	0.775633	0.889935	0.67515
470	H	0.631303	0.745616	0.675143
471	H	0.631313	0.889947	0.675147
472	C	0.902188	0.703215	0.674079
473	C	0.87392	0.647324	0.67436
474	C	0.818025	0.619057	0.674076
475	C	0.790402	0.647328	0.674347
476	C	0.818032	0.703219	0.674079
477	C	0.873924	0.730842	0.67435
478	H	0.749867	0.627061	0.675143
479	H	0.894193	0.77138	0.675147
480	H	0.894187	0.627053	0.675143
481	C	0.790289	0.730968	0.676333
482	C	0.776669	0.744592	0.718061
483	C	0.748839	0.772408	0.718064
484	C	0.735204	0.786024	0.676337
485	N	0.749772	0.771459	0.97092
486	H	0.738778	0.782473	0.748164
487	H	0.786735	0.734531	0.74816
488	N	0.775712	0.745529	0.970917
489	C	0.790278	0.56357	0.67633
490	C	0.776663	0.536327	0.718064
491	C	0.748846	0.980681	0.718068
492	C	0.73522	0.953426	0.67634
493	N	0.749777	0.982556	0.970923
494	H	0.738787	0.960556	0.748167
495	H	0.786727	0.556456	0.748157
496	N	0.775707	0.534429	0.970917
497	C	0.957678	0.73096	0.67633
498	C	0.984922	0.744584	0.718061
499	C	0.540571	0.772412	0.718064
500	C	0.56782	0.786036	0.676337
501	N	0.538687	0.771467	0.970917
502	H	0.560697	0.782477	0.74816
503	H	0.964794	0.734519	0.748157
504	N	0.986816	0.745529	0.970917
