data_C162H54N108_2018-02-15_10:38:15
#******************************************
#
# CIF file created by Zeo++
# Zeo++ is an open source package to
# analyze microporous materials
#
#*******************************************

_cell_length_a		29.8966   
_cell_length_b		29.8965   
_cell_length_c		29.4318   
_cell_angle_alpha		90   
_cell_angle_beta		90   
_cell_angle_gamma		120   

_symmetry_space_group_name_H-M		'P1'
_symmetry_Int_Tables_number		1
_symmetry_cell_setting		Monoclinic

loop_
_symmetry_equiv_pos_as_xyz
'+x,+y,+z'

loop_
_atom_site_label
_atom_site_type_symbol
_atom_site_fract_x
_atom_site_fract_y
_atom_site_fract_z
1	C	0.124464	0.56541	0.990253
2	N	0.042519	0.485629	0.314596
3	C	0.070112	0.538219	0.314998
4	N	0.042277	0.562961	0.982085
5	C	0.124464	0.56541	0.323588
6	N	0.042519	0.485629	0.647929
7	C	0.070112	0.538219	0.64833
8	N	0.042277	0.562961	0.31542
9	C	0.124464	0.56541	0.65692
10	N	0.042519	0.485629	0.981263
11	C	0.070112	0.538219	0.981664
12	N	0.042277	0.562961	0.648755
13	C	0.198329	0.642984	0.016718
14	N	0.150264	0.617983	0.99765
15	N	0.149989	0.538535	0.998567
16	C	0.197992	0.561528	0.017819
17	N	0.218496	0.612484	0.026162
18	H	0.214713	0.490133	0.304351
19	C	0.198329	0.642984	0.35005
20	N	0.150264	0.617983	0.330986
21	N	0.149989	0.538535	0.331901
22	C	0.197992	0.561528	0.351151
23	N	0.218496	0.612484	0.359496
24	H	0.214713	0.490133	0.637685
25	C	0.198329	0.642984	0.683384
26	N	0.150264	0.617983	0.66432
27	N	0.149989	0.538535	0.665234
28	C	0.197992	0.561528	0.684485
29	N	0.218496	0.612484	0.692826
30	H	0.214713	0.490133	0.971019
31	C	0.273115	0.569542	0.057738
32	N	0.288044	0.51199	0.327616
33	C	0.240947	0.509858	0.329378
34	C	0.23363	0.543711	0.358341
35	H	0.271698	0.594029	0.081198
36	N	0.271784	0.706129	0.054808
37	C	0.234338	0.696107	0.023717
38	N	0.24297	0.736144	0.329008
39	C	0.287958	0.783237	0.330412
40	H	0.294171	0.809369	0.305371
41	C	0.273115	0.569542	0.391071
42	N	0.288044	0.51199	0.660949
43	C	0.240947	0.509858	0.662713
44	C	0.23363	0.543711	0.691671
45	H	0.271698	0.594029	0.414532
46	N	0.271784	0.706129	0.388142
47	C	0.234338	0.696107	0.35705
48	N	0.24297	0.736144	0.662342
49	C	0.287958	0.783237	0.663745
50	H	0.294171	0.809369	0.638704
51	C	0.273115	0.569542	0.724404
52	N	0.288044	0.51199	0.994283
53	C	0.240947	0.509858	0.996043
54	C	0.23363	0.543711	0.025007
55	H	0.271698	0.594029	0.747865
56	N	0.271784	0.706129	0.721472
57	C	0.234338	0.696107	0.690383
58	N	0.24297	0.736144	0.995673
59	C	0.287958	0.783237	0.997079
60	H	0.294171	0.809369	0.972038
61	C	0.381256	0.560304	0.015236
62	N	0.406291	0.537207	0.996294
63	C	0.458899	0.563953	0.989054
64	N	0.485794	0.616346	0.997409
65	C	0.462714	0.641366	0.016464
66	N	0.411738	0.610962	0.024712
67	C	0.46387	0.825765	0.015412
68	N	0.48673	0.87392	0.996522
69	C	0.459858	0.89974	0.989754
70	N	0.407575	0.874206	0.998605
71	C	0.382822	0.826128	0.017712
72	N	0.413342	0.805584	0.025463
73	C	0.830719	0.376871	0.015393
74	N	0.878961	0.402396	0.996736
75	C	0.905049	0.455148	0.989927
76	N	0.878889	0.481412	0.998455
77	C	0.830644	0.458014	0.017213
78	N	0.810289	0.407035	0.025132
79	C	0.647119	0.458624	0.016668
80	N	0.62173	0.481307	0.997677
81	C	0.569013	0.454677	0.990719
82	N	0.542657	0.40228	0.999345
83	C	0.565852	0.377445	0.01853
84	N	0.616835	0.408058	0.026476
85	C	0.565593	0.193441	0.016364
86	N	0.542653	0.145307	0.997484
87	C	0.569154	0.119148	0.990199
88	N	0.621649	0.145159	0.99837
89	C	0.646726	0.193287	0.017353
90	N	0.616267	0.213742	0.025717
91	C	0.989893	0.458068	0.313649
92	C	0.989643	0.537651	0.981246
93	C	0.960034	0.482914	0.981589
94	H	0.972587	0.418753	0.315017
95	H	0.972111	0.559423	0.983203
96	C	0.566252	0.536608	0.313816
97	N	0.538714	0.561702	0.314261
98	C	0.486123	0.536739	0.314203
99	N	0.461347	0.484162	0.981365
100	C	0.486631	0.456805	0.981015
101	C	0.54136	0.481902	0.981847
102	H	0.605551	0.5586	0.315519
103	H	0.464823	0.417506	0.982989
104	C	0.566812	0.034562	0.313534
105	N	0.539471	0.981923	0.314276
106	C	0.486891	0.954141	0.314702
107	N	0.461932	0.98176	0.981966
108	C	0.487019	0.034379	0.981249
109	C	0.541747	0.064215	0.981593
110	H	0.606142	0.052051	0.314876
111	H	0.46508	0.051718	0.983363
112	N	0.318221	0.570288	0.053851
113	C	0.328153	0.543217	0.022332
114	C	0.455039	0.708265	0.057066
115	N	0.454305	0.752663	0.05357
116	C	0.481193	0.789876	0.022152
117	N	0.512127	0.781035	0.327013
118	C	0.514303	0.736082	0.328376
119	C	0.480679	0.69479	0.357335
120	H	0.430669	0.682222	0.080501
121	H	0.533792	0.729666	0.303064
122	C	0.316236	0.751214	0.058315
123	C	0.329492	0.790591	0.358898
124	H	0.342473	0.752663	0.081417
125	C	0.755878	0.449702	0.057943
126	N	0.710689	0.44886	0.054535
127	C	0.700337	0.475954	0.02335
128	N	0.740181	0.507309	0.328439
129	C	0.787388	0.509638	0.329729
130	C	0.795016	0.475711	0.358314
131	H	0.757564	0.425138	0.081154
132	H	0.81336	0.529459	0.304557
133	C	0.574493	0.310784	0.058585
134	N	0.575496	0.26655	0.054763
135	C	0.548355	0.229341	0.023423
136	N	0.516767	0.237852	0.328849
137	C	0.514371	0.282678	0.330542
138	C	0.548286	0.324076	0.359272
139	H	0.59907	0.336886	0.081881
140	H	0.494376	0.28892	0.305592
141	C	0.713713	0.268117	0.057616
142	N	0.757989	0.313327	0.053888
143	C	0.795055	0.323646	0.022321
144	N	0.786198	0.283807	0.327257
145	C	0.741341	0.236601	0.328842
146	C	0.700166	0.2289	0.35797
147	H	0.687765	0.266441	0.081157
148	H	0.734869	0.210625	0.303581
149	C	0.381256	0.560304	0.348569
150	N	0.406291	0.537207	0.32963
151	C	0.458899	0.563953	0.322387
152	N	0.485794	0.616346	0.330743
153	C	0.462714	0.641366	0.349799
154	N	0.411738	0.610962	0.358045
155	C	0.46387	0.825765	0.348746
156	N	0.48673	0.87392	0.329858
157	C	0.459858	0.89974	0.323088
158	N	0.407575	0.874206	0.331939
159	C	0.382822	0.826128	0.351046
160	N	0.413342	0.805584	0.358796
161	C	0.830719	0.376871	0.348725
162	N	0.878961	0.402396	0.330071
163	C	0.905049	0.455148	0.32326
164	N	0.878889	0.481412	0.331791
165	C	0.830644	0.458014	0.350546
166	N	0.810289	0.407035	0.358466
167	C	0.647119	0.458624	0.349999
168	N	0.62173	0.481307	0.33101
169	C	0.569013	0.454677	0.324054
170	N	0.542657	0.40228	0.332681
171	C	0.565852	0.377445	0.351861
172	N	0.616835	0.408058	0.359809
173	C	0.565593	0.193441	0.349697
174	N	0.542653	0.145307	0.330817
175	C	0.569154	0.119148	0.323534
176	N	0.621649	0.145159	0.331706
177	C	0.646726	0.193287	0.350686
178	N	0.616267	0.213742	0.359051
179	C	0.989893	0.458068	0.646981
180	C	0.989643	0.537651	0.314579
181	C	0.960034	0.482914	0.314923
182	H	0.972587	0.418753	0.648351
183	H	0.972111	0.559423	0.316538
184	C	0.566252	0.536608	0.647148
185	N	0.538714	0.561702	0.647596
186	C	0.486123	0.536739	0.647535
187	N	0.461347	0.484162	0.3147
188	C	0.486631	0.456805	0.314348
189	C	0.54136	0.481902	0.31518
190	H	0.605551	0.5586	0.648853
191	H	0.464823	0.417506	0.316324
192	C	0.566812	0.034562	0.646866
193	N	0.539471	0.981923	0.64761
194	C	0.486891	0.954141	0.648035
195	N	0.461932	0.98176	0.315301
196	C	0.487019	0.034379	0.314584
197	C	0.541747	0.064215	0.314927
198	H	0.606142	0.052051	0.648208
199	H	0.46508	0.051718	0.316696
200	N	0.318221	0.570288	0.387184
201	C	0.328153	0.543217	0.355667
202	C	0.455039	0.708265	0.390398
203	N	0.454305	0.752663	0.386902
204	C	0.481193	0.789876	0.355483
205	N	0.512127	0.781035	0.660348
206	C	0.514303	0.736082	0.66171
207	C	0.480679	0.69479	0.690669
208	H	0.430669	0.682222	0.413835
209	H	0.533792	0.729666	0.636397
210	C	0.316236	0.751214	0.391648
211	C	0.329492	0.790591	0.692232
212	H	0.342473	0.752663	0.414749
213	C	0.755878	0.449702	0.391275
214	N	0.710689	0.44886	0.387867
215	C	0.700337	0.475954	0.356683
216	N	0.740181	0.507309	0.661771
217	C	0.787388	0.509638	0.663063
218	C	0.795016	0.475711	0.691644
219	H	0.757564	0.425138	0.414488
220	H	0.81336	0.529459	0.637889
221	C	0.574493	0.310784	0.391917
222	N	0.575496	0.26655	0.388094
223	C	0.548355	0.229341	0.356757
224	N	0.516767	0.237852	0.662183
225	C	0.514371	0.282678	0.663875
226	C	0.548286	0.324076	0.692605
227	H	0.59907	0.336886	0.415215
228	H	0.494376	0.28892	0.638925
229	C	0.713713	0.268117	0.390948
230	N	0.757989	0.313327	0.387221
231	C	0.795055	0.323646	0.355653
232	N	0.786198	0.283807	0.660589
233	C	0.741341	0.236601	0.662176
234	C	0.700166	0.2289	0.691304
235	H	0.687765	0.266441	0.414491
236	H	0.734869	0.210625	0.636914
237	C	0.381256	0.560304	0.681903
238	N	0.406291	0.537207	0.662964
239	C	0.458899	0.563953	0.65572
240	N	0.485794	0.616346	0.664075
241	C	0.462714	0.641366	0.683129
242	N	0.411738	0.610962	0.691379
243	C	0.46387	0.825765	0.682079
244	N	0.48673	0.87392	0.663192
245	C	0.459858	0.89974	0.65642
246	N	0.407575	0.874206	0.665271
247	C	0.382822	0.826128	0.684376
248	N	0.413342	0.805584	0.69213
249	C	0.830719	0.376871	0.682059
250	N	0.878961	0.402396	0.663406
251	C	0.905049	0.455148	0.656593
252	N	0.878889	0.481412	0.665125
253	C	0.830644	0.458014	0.68388
254	N	0.810289	0.407035	0.691797
255	C	0.647119	0.458624	0.683333
256	N	0.62173	0.481307	0.664343
257	C	0.569013	0.454677	0.657385
258	N	0.542657	0.40228	0.666015
259	C	0.565852	0.377445	0.685195
260	N	0.616835	0.408058	0.693142
261	C	0.565593	0.193441	0.683031
262	N	0.542653	0.145307	0.66415
263	C	0.569154	0.119148	0.656869
264	N	0.621649	0.145159	0.66504
265	C	0.646726	0.193287	0.684019
266	N	0.616267	0.213742	0.692385
267	C	0.989893	0.458068	0.980315
268	C	0.989643	0.537651	0.647912
269	C	0.960034	0.482914	0.648255
270	H	0.972587	0.418753	0.981684
271	H	0.972111	0.559423	0.649869
272	C	0.566252	0.536608	0.980481
273	N	0.538714	0.561702	0.980927
274	C	0.486123	0.536739	0.980869
275	N	0.461347	0.484162	0.648031
276	C	0.486631	0.456805	0.647681
277	C	0.54136	0.481902	0.648514
278	H	0.605551	0.5586	0.982184
279	H	0.464823	0.417506	0.649655
280	C	0.566812	0.034562	0.980199
281	N	0.539471	0.981923	0.980944
282	C	0.486891	0.954141	0.981368
283	N	0.461932	0.98176	0.648633
284	C	0.487019	0.034379	0.647916
285	C	0.541747	0.064215	0.648259
286	H	0.606142	0.052051	0.981542
287	H	0.46508	0.051718	0.650029
288	N	0.318221	0.570288	0.720517
289	C	0.328153	0.543217	0.688997
290	C	0.455039	0.708265	0.723732
291	N	0.454305	0.752663	0.720235
292	C	0.481193	0.789876	0.688817
293	N	0.512127	0.781035	0.993678
294	C	0.514303	0.736082	0.995041
295	C	0.480679	0.69479	0.024002
296	H	0.430669	0.682222	0.747169
297	H	0.533792	0.729666	0.969731
298	C	0.316236	0.751214	0.724982
299	C	0.329492	0.790591	0.025565
300	H	0.342473	0.752663	0.748083
301	C	0.755878	0.449702	0.724608
302	N	0.710689	0.44886	0.7212
303	C	0.700337	0.475954	0.690016
304	N	0.740181	0.507309	0.995105
305	C	0.787388	0.509638	0.996396
306	C	0.795016	0.475711	0.02498
307	H	0.757564	0.425138	0.747821
308	H	0.81336	0.529459	0.971223
309	C	0.574493	0.310784	0.72525
310	N	0.575496	0.26655	0.721428
311	C	0.548355	0.229341	0.690088
312	N	0.516767	0.237852	0.995516
313	C	0.514371	0.282678	0.997208
314	C	0.548286	0.324076	0.02594
315	H	0.59907	0.336886	0.748545
316	H	0.494376	0.28892	0.972259
317	C	0.713713	0.268117	0.724282
318	N	0.757989	0.313327	0.720555
319	C	0.795055	0.323646	0.688987
320	N	0.786198	0.283807	0.993923
321	C	0.741341	0.236601	0.995506
322	C	0.700166	0.2289	0.024638
323	H	0.687765	0.266441	0.747821
324	H	0.734869	0.210625	0.970248
