data_C288H180_2018-02-15_10:38:55
#******************************************
#
# CIF file created by Zeo++
# Zeo++ is an open source package to
# analyze microporous materials
#
#*******************************************

_cell_length_a		34.3237   
_cell_length_b		34.334   
_cell_length_c		29.4258   
_cell_angle_alpha		90   
_cell_angle_beta		90   
_cell_angle_gamma		119.993   

_symmetry_space_group_name_H-M		'P1'
_symmetry_Int_Tables_number		1
_symmetry_cell_setting		Monoclinic

loop_
_symmetry_equiv_pos_as_xyz
'+x,+y,+z'

loop_
_atom_site_label
_atom_site_type_symbol
_atom_site_fract_x
_atom_site_fract_y
_atom_site_fract_z
1	C	0.059123	0.03185	0.009639
2	C	0.034848	0.055174	0.009656
3	C	0.987248	0.031842	0.009731
4	C	0.963917	0.984257	0.009794
5	C	0.987251	0.95999	0.009773
6	C	0.03486	0.984264	0.009697
7	H	0.929435	0.967032	0.009828
8	H	0.052109	0.967032	0.009697
9	H	0.05208	0.089647	0.009629
10	C	0.46819	0.200852	0.005245
11	C	0.491285	0.248093	0.009629
12	C	0.468155	0.272214	0.014038
13	C	0.420614	0.248158	0.013636
14	C	0.396307	0.20059	0.009642
15	C	0.420648	0.177353	0.005656
16	H	0.403617	0.265529	0.016188
17	H	0.40368	0.142996	0.003097
18	H	0.525826	0.265367	0.009612
19	C	0.818553	0.2722	0.005615
20	C	0.771293	0.248071	0.009977
21	C	0.747139	0.200822	0.014281
22	C	0.771179	0.177325	0.013822
23	C	0.818764	0.200572	0.009887
24	C	0.842037	0.248146	0.005979
25	H	0.753789	0.142962	0.01631
26	H	0.876409	0.265518	0.00345
27	H	0.75403	0.265344	0.009994
28	C	0.747066	0.551089	0.005306
29	C	0.77121	0.527982	0.009704
30	C	0.818461	0.551092	0.014145
31	C	0.841945	0.59862	0.013786
32	C	0.818683	0.622937	0.009783
33	C	0.771105	0.598616	0.005748
34	H	0.876309	0.615592	0.016388
35	H	0.753712	0.615589	0.003185
36	H	0.753946	0.493452	0.009687
37	C	0.348279	0.176564	0.009625
38	C	0.323739	0.18012	0.046441
39	C	0.276318	0.155924	0.04667
40	C	0.251691	0.128204	0.009605
41	C	0.27637	0.125167	0.305884
42	C	0.323792	0.148467	0.306128
43	H	0.259927	0.10513	0.278604
44	H	0.340379	0.145316	0.27871
45	C	0.203521	0.104083	0.342931
46	C	0.178892	0.07731	0.047191
47	C	0.131472	0.053102	0.046978
48	C	0.107048	0.055807	0.342944
49	C	0.131435	0.082924	0.305564
50	C	0.178857	0.106198	0.30535
51	H	0.195373	0.074405	0.074832
52	H	0.114853	0.03396	0.074711
53	H	0.114787	0.085434	0.277844
54	H	0.340286	0.199853	0.073871
55	H	0.195312	0.125558	0.27769
56	H	0.259835	0.159488	0.073936
57	C	0.842759	0.176546	0.009862
58	C	0.83928	0.148555	0.046739
59	C	0.863412	0.125266	0.046947
60	C	0.890997	0.12818	0.009809
61	C	0.893956	0.155812	0.306038
62	C	0.870722	0.179999	0.306293
63	H	0.913899	0.15931	0.278701
64	H	0.873798	0.199644	0.278821
65	C	0.915069	0.104063	0.343124
66	C	0.941483	0.105783	0.047559
67	C	0.965639	0.08252	0.047345
68	C	0.963286	0.055796	0.343087
69	C	0.936547	0.053477	0.305519
70	C	0.913317	0.077667	0.305334
71	H	0.944132	0.124865	0.075374
72	H	0.984501	0.084727	0.075216
73	H	0.934317	0.034628	0.277632
74	H	0.819634	0.145477	0.074217
75	H	0.894213	0.075032	0.277537
76	H	0.85986	0.10527	0.074247
77	C	0.842688	0.670956	0.009811
78	C	0.87086	0.695448	0.0466
79	C	0.894106	0.742855	0.046865
80	C	0.89097	0.767498	0.009845
81	C	0.863184	0.742881	0.30615
82	C	0.839026	0.695478	0.306376
83	H	0.859587	0.759366	0.278907
84	H	0.819241	0.678926	0.278976
85	C	0.915063	0.815634	0.343175
86	C	0.912562	0.840271	0.047232
87	C	0.935784	0.887678	0.046976
88	C	0.963294	0.912069	0.343138
89	C	0.966392	0.887648	0.305989
90	C	0.94222	0.840241	0.305785
91	H	0.892902	0.823806	0.074724
92	H	0.932988	0.904314	0.074548
93	H	0.985815	0.904257	0.278403
94	H	0.874086	0.678879	0.073986
95	H	0.945358	0.823753	0.278283
96	H	0.914205	0.759319	0.074106
97	C	0.494183	0.179213	0.33548
98	C	0.523762	0.188835	0.298359
99	C	0.559309	0.179619	0.300607
100	C	0.566999	0.161042	0.340294
101	C	0.535809	0.149367	0.043131
102	C	0.499951	0.158254	0.040838
103	H	0.540524	0.136685	0.072784
104	H	0.480755	0.153156	0.069258
105	C	0.60853	0.161024	0.012407
106	C	0.628037	0.149309	0.309593
107	C	0.672781	0.158193	0.311898
108	C	0.699486	0.179163	0.017255
109	C	0.67955	0.188795	0.054394
110	C	0.634813	0.179663	0.052075
111	H	0.610637	0.136612	0.279944
112	H	0.686906	0.15308	0.28351
113	H	0.698656	0.206145	0.081903
114	H	0.521959	0.206123	0.270819
115	H	0.623238	0.19088	0.078149
116	H	0.582104	0.190816	0.274538
117	C	0.840218	0.319837	0.33594
118	C	0.830607	0.339724	0.298746
119	C	0.839735	0.384447	0.300968
120	C	0.858292	0.410761	0.340633
121	C	0.869948	0.3913	0.043533
122	C	0.86103	0.346554	0.041326
123	H	0.882614	0.408724	0.073172
124	H	0.866193	0.332483	0.069728
125	C	0.858256	0.45229	0.012636
126	C	0.869903	0.4834	0.309724
127	C	0.860892	0.519175	0.311896
128	C	0.840106	0.525103	0.017306
129	C	0.830543	0.495648	0.054504
130	C	0.839684	0.460058	0.052285
131	H	0.882463	0.478571	0.280046
132	H	0.865993	0.53833	0.283445
133	H	0.813429	0.497622	0.082115
134	H	0.81339	0.320622	0.271182
135	H	0.828694	0.437439	0.078505
136	H	0.82857	0.395988	0.274819
137	C	0.699428	0.525103	0.335515
138	C	0.67949	0.495624	0.298339
139	C	0.634732	0.460075	0.300578
140	C	0.608479	0.452303	0.340297
141	C	0.628003	0.483417	0.043193
142	C	0.67274	0.519276	0.040923
143	H	0.610616	0.478642	0.072865
144	H	0.686848	0.53841	0.069372
145	C	0.566932	0.410775	0.012364
146	C	0.535715	0.391334	0.309537
147	C	0.499862	0.346604	0.311783
148	C	0.494119	0.319849	0.017094
149	C	0.523678	0.33972	0.054251
150	C	0.559278	0.38444	0.05199
151	H	0.540418	0.408774	0.279918
152	H	0.480634	0.332529	0.28338
153	H	0.521921	0.320576	0.081725
154	H	0.698579	0.497484	0.270773
155	H	0.582066	0.395968	0.078069
156	H	0.623135	0.437338	0.274465
157	C	0.059123	0.03185	0.342975
158	C	0.034848	0.055174	0.342989
159	C	0.987248	0.031842	0.343067
160	C	0.963917	0.984257	0.343128
161	C	0.987251	0.95999	0.343104
162	C	0.03486	0.984264	0.343029
163	H	0.929435	0.967032	0.343162
164	H	0.052109	0.967032	0.343029
165	H	0.05208	0.089647	0.342965
166	C	0.46819	0.200852	0.338579
167	C	0.491285	0.248093	0.342965
168	C	0.468155	0.272214	0.347372
169	C	0.420614	0.248158	0.346968
170	C	0.396307	0.20059	0.342978
171	C	0.420648	0.177353	0.338992
172	H	0.403617	0.265529	0.34952
173	H	0.40368	0.142996	0.336431
174	H	0.525826	0.265367	0.342948
175	C	0.818553	0.2722	0.338948
176	C	0.771293	0.248071	0.343308
177	C	0.747139	0.200822	0.347614
178	C	0.771179	0.177325	0.347155
179	C	0.818764	0.200572	0.34322
180	C	0.842037	0.248146	0.339315
181	H	0.753789	0.142962	0.349643
182	H	0.876409	0.265518	0.336784
183	H	0.75403	0.265344	0.343328
184	C	0.747066	0.551089	0.338639
185	C	0.77121	0.527982	0.343036
186	C	0.818461	0.551092	0.347478
187	C	0.841945	0.59862	0.347118
188	C	0.818683	0.622937	0.343114
189	C	0.771105	0.598616	0.339081
190	H	0.876309	0.615592	0.349721
191	H	0.753712	0.615589	0.336519
192	H	0.753946	0.493452	0.343022
193	C	0.348279	0.176564	0.342958
194	C	0.323739	0.18012	0.379773
195	C	0.276318	0.155924	0.380004
196	C	0.251691	0.128204	0.342938
197	C	0.27637	0.125167	0.639215
198	C	0.323792	0.148467	0.63946
199	H	0.259927	0.10513	0.611936
200	H	0.340379	0.145316	0.612042
201	C	0.203521	0.104083	0.676264
202	C	0.178892	0.07731	0.380524
203	C	0.131472	0.053102	0.38031
204	C	0.107048	0.055807	0.676278
205	C	0.131435	0.082924	0.638896
206	C	0.178857	0.106198	0.638682
207	H	0.195373	0.074405	0.408166
208	H	0.114853	0.03396	0.408044
209	H	0.114787	0.085434	0.611179
210	H	0.340286	0.199853	0.407204
211	H	0.195312	0.125558	0.611022
212	H	0.259835	0.159488	0.407269
213	C	0.842759	0.176546	0.343196
214	C	0.83928	0.148555	0.380072
215	C	0.863412	0.125266	0.380279
216	C	0.890997	0.12818	0.343141
217	C	0.893956	0.155812	0.639372
218	C	0.870722	0.179999	0.639626
219	H	0.913899	0.15931	0.612035
220	H	0.873798	0.199644	0.612154
221	C	0.915069	0.104063	0.676455
222	C	0.941483	0.105783	0.380891
223	C	0.965639	0.08252	0.380677
224	C	0.963286	0.055796	0.676421
225	C	0.936547	0.053477	0.638852
226	C	0.913317	0.077667	0.638668
227	H	0.944132	0.124865	0.408706
228	H	0.984501	0.084727	0.40855
229	H	0.934317	0.034628	0.610965
230	H	0.819634	0.145477	0.407551
231	H	0.894213	0.075032	0.610869
232	H	0.85986	0.10527	0.407582
233	C	0.842688	0.670956	0.343145
234	C	0.87086	0.695448	0.379932
235	C	0.894106	0.742855	0.380197
236	C	0.89097	0.767498	0.343179
237	C	0.863184	0.742881	0.639484
238	C	0.839026	0.695478	0.639708
239	H	0.859587	0.759366	0.612239
240	H	0.819241	0.678926	0.61231
241	C	0.915063	0.815634	0.676509
242	C	0.912562	0.840271	0.380564
243	C	0.935784	0.887678	0.38031
244	C	0.963294	0.912069	0.676472
245	C	0.966392	0.887648	0.639321
246	C	0.94222	0.840241	0.63912
247	H	0.892902	0.823806	0.408057
248	H	0.932988	0.904314	0.407881
249	H	0.985815	0.904257	0.611736
250	H	0.874086	0.678879	0.40732
251	H	0.945358	0.823753	0.611617
252	H	0.914205	0.759319	0.407439
253	C	0.494183	0.179213	0.668812
254	C	0.523762	0.188835	0.631691
255	C	0.559309	0.179619	0.633941
256	C	0.566999	0.161042	0.673624
257	C	0.535809	0.149367	0.376466
258	C	0.499951	0.158254	0.374172
259	H	0.540524	0.136685	0.406117
260	H	0.480755	0.153156	0.402593
261	C	0.60853	0.161024	0.345741
262	C	0.628037	0.149309	0.642926
263	C	0.672781	0.158193	0.64523
264	C	0.699486	0.179163	0.350587
265	C	0.67955	0.188795	0.387728
266	C	0.634813	0.179663	0.385407
267	H	0.610637	0.136612	0.613275
268	H	0.686906	0.15308	0.616844
269	H	0.698656	0.206145	0.415235
270	H	0.521959	0.206123	0.604151
271	H	0.623238	0.19088	0.411483
272	H	0.582104	0.190816	0.607872
273	C	0.840218	0.319837	0.669274
274	C	0.830607	0.339724	0.632079
275	C	0.839735	0.384447	0.634301
276	C	0.858292	0.410761	0.673967
277	C	0.869948	0.3913	0.376867
278	C	0.86103	0.346554	0.374658
279	H	0.882614	0.408724	0.406504
280	H	0.866193	0.332483	0.403062
281	C	0.858256	0.45229	0.345969
282	C	0.869903	0.4834	0.643059
283	C	0.860892	0.519175	0.64523
284	C	0.840106	0.525103	0.350638
285	C	0.830543	0.495648	0.387837
286	C	0.839684	0.460058	0.385618
287	H	0.882463	0.478571	0.613381
288	H	0.865993	0.53833	0.616779
289	H	0.813429	0.497622	0.415449
290	H	0.81339	0.320622	0.604514
291	H	0.828694	0.437439	0.411836
292	H	0.82857	0.395988	0.608154
293	C	0.699428	0.525103	0.668849
294	C	0.67949	0.495624	0.631671
295	C	0.634732	0.460075	0.63391
296	C	0.608479	0.452303	0.673631
297	C	0.628003	0.483417	0.376527
298	C	0.67274	0.519276	0.374257
299	H	0.610616	0.478642	0.406198
300	H	0.686848	0.53841	0.402705
301	C	0.566932	0.410775	0.345697
302	C	0.535715	0.391334	0.642872
303	C	0.499862	0.346604	0.645115
304	C	0.494119	0.319849	0.350428
305	C	0.523678	0.33972	0.387585
306	C	0.559278	0.38444	0.385322
307	H	0.540418	0.408774	0.613252
308	H	0.480634	0.332529	0.616715
309	H	0.521921	0.320576	0.415058
310	H	0.698579	0.497484	0.604107
311	H	0.582066	0.395968	0.411401
312	H	0.623135	0.437338	0.607797
313	C	0.059123	0.03185	0.676305
314	C	0.034848	0.055174	0.676322
315	C	0.987248	0.031842	0.676397
316	C	0.963917	0.984257	0.676458
317	C	0.987251	0.95999	0.676438
318	C	0.03486	0.984264	0.676363
319	H	0.929435	0.967032	0.676496
320	H	0.052109	0.967032	0.676363
321	H	0.05208	0.089647	0.676298
322	C	0.46819	0.200852	0.671911
323	C	0.491285	0.248093	0.676295
324	C	0.468155	0.272214	0.680703
325	C	0.420614	0.248158	0.680302
326	C	0.396307	0.20059	0.676309
327	C	0.420648	0.177353	0.672326
328	H	0.403617	0.265529	0.682854
329	H	0.40368	0.142996	0.669763
330	H	0.525826	0.265367	0.676281
331	C	0.818553	0.2722	0.672282
332	C	0.771293	0.248071	0.676642
333	C	0.747139	0.200822	0.680947
334	C	0.771179	0.177325	0.680489
335	C	0.818764	0.200572	0.676553
336	C	0.842037	0.248146	0.672649
337	H	0.753789	0.142962	0.682976
338	H	0.876409	0.265518	0.670117
339	H	0.75403	0.265344	0.676659
340	C	0.747066	0.551089	0.671972
341	C	0.77121	0.527982	0.67637
342	C	0.818461	0.551092	0.680811
343	C	0.841945	0.59862	0.680451
344	C	0.818683	0.622937	0.676448
345	C	0.771105	0.598616	0.672414
346	H	0.876309	0.615592	0.683054
347	H	0.753712	0.615589	0.669852
348	H	0.753946	0.493452	0.676353
349	C	0.348279	0.176564	0.676292
350	C	0.323739	0.18012	0.713106
351	C	0.276318	0.155924	0.713337
352	C	0.251691	0.128204	0.676271
353	C	0.27637	0.125167	0.972549
354	C	0.323792	0.148467	0.972794
355	H	0.259927	0.10513	0.94527
356	H	0.340379	0.145316	0.945376
357	C	0.203521	0.104083	0.009598
358	C	0.178892	0.07731	0.713857
359	C	0.131472	0.053102	0.713643
360	C	0.107048	0.055807	0.009612
361	C	0.131435	0.082924	0.97223
362	C	0.178857	0.106198	0.972015
363	H	0.195373	0.074405	0.741496
364	H	0.114853	0.03396	0.741377
365	H	0.114787	0.085434	0.944509
366	H	0.340286	0.199853	0.740538
367	H	0.195312	0.125558	0.944356
368	H	0.259835	0.159488	0.740603
369	C	0.842759	0.176546	0.67653
370	C	0.83928	0.148555	0.713405
371	C	0.863412	0.125266	0.713613
372	C	0.890997	0.12818	0.676475
373	C	0.893956	0.155812	0.972705
374	C	0.870722	0.179999	0.97296
375	H	0.913899	0.15931	0.945369
376	H	0.873798	0.199644	0.945488
377	C	0.915069	0.104063	0.00979
378	C	0.941483	0.105783	0.714224
379	C	0.965639	0.08252	0.71401
380	C	0.963286	0.055796	0.009754
381	C	0.936547	0.053477	0.972185
382	C	0.913317	0.077667	0.971998
383	H	0.944132	0.124865	0.74204
384	H	0.984501	0.084727	0.741884
385	H	0.934317	0.034628	0.944298
386	H	0.819634	0.145477	0.740881
387	H	0.894213	0.075032	0.944203
388	H	0.85986	0.10527	0.740912
389	C	0.842688	0.670956	0.676479
390	C	0.87086	0.695448	0.713266
391	C	0.894106	0.742855	0.713531
392	C	0.89097	0.767498	0.676509
393	C	0.863184	0.742881	0.972817
394	C	0.839026	0.695478	0.973042
395	H	0.859587	0.759366	0.945573
396	H	0.819241	0.678926	0.945641
397	C	0.915063	0.815634	0.009844
398	C	0.912562	0.840271	0.713898
399	C	0.935784	0.887678	0.713643
400	C	0.963294	0.912069	0.009806
401	C	0.966392	0.887648	0.972654
402	C	0.94222	0.840241	0.97245
403	H	0.892902	0.823806	0.741391
404	H	0.932988	0.904314	0.741214
405	H	0.985815	0.904257	0.94507
406	H	0.874086	0.678879	0.74065
407	H	0.945358	0.823753	0.944947
408	H	0.914205	0.759319	0.740773
409	C	0.494183	0.179213	0.002146
410	C	0.523762	0.188835	0.965025
411	C	0.559309	0.179619	0.967271
412	C	0.566999	0.161042	0.006958
413	C	0.535809	0.149367	0.709796
414	C	0.499951	0.158254	0.707502
415	H	0.540524	0.136685	0.739451
416	H	0.480755	0.153156	0.735923
417	C	0.60853	0.161024	0.679072
418	C	0.628037	0.149309	0.97626
419	C	0.672781	0.158193	0.978564
420	C	0.699486	0.179163	0.683921
421	C	0.67955	0.188795	0.721059
422	C	0.634813	0.179663	0.718741
423	H	0.610637	0.136612	0.946609
424	H	0.686906	0.15308	0.950177
425	H	0.698656	0.206145	0.748568
426	H	0.521959	0.206123	0.937484
427	H	0.623238	0.19088	0.744813
428	H	0.582104	0.190816	0.941202
429	C	0.840218	0.319837	0.002608
430	C	0.830607	0.339724	0.965412
431	C	0.839735	0.384447	0.967635
432	C	0.858292	0.410761	0.007297
433	C	0.869948	0.3913	0.710201
434	C	0.86103	0.346554	0.707992
435	H	0.882614	0.408724	0.739838
436	H	0.866193	0.332483	0.736392
437	C	0.858256	0.45229	0.679303
438	C	0.869903	0.4834	0.976389
439	C	0.860892	0.519175	0.978561
440	C	0.840106	0.525103	0.683972
441	C	0.830543	0.495648	0.721171
442	C	0.839684	0.460058	0.718952
443	H	0.882463	0.478571	0.946711
444	H	0.865993	0.53833	0.950109
445	H	0.813429	0.497622	0.748779
446	H	0.81339	0.320622	0.937848
447	H	0.828694	0.437439	0.74517
448	H	0.82857	0.395988	0.941484
449	C	0.699428	0.525103	0.002179
450	C	0.67949	0.495624	0.965005
451	C	0.634732	0.460075	0.967244
452	C	0.608479	0.452303	0.006961
453	C	0.628003	0.483417	0.709857
454	C	0.67274	0.519276	0.707587
455	H	0.610616	0.478642	0.739532
456	H	0.686848	0.53841	0.736039
457	C	0.566932	0.410775	0.679031
458	C	0.535715	0.391334	0.976202
459	C	0.499862	0.346604	0.978449
460	C	0.494119	0.319849	0.683761
461	C	0.523678	0.33972	0.720916
462	C	0.559278	0.38444	0.718656
463	H	0.540418	0.408774	0.946585
464	H	0.480634	0.332529	0.950045
465	H	0.521921	0.320576	0.748392
466	H	0.698579	0.497484	0.93744
467	H	0.582066	0.395968	0.744735
468	H	0.623135	0.437338	0.941131
