data_C216H81N81O54_2018-02-15_10:40:09
#******************************************
#
# CIF file created by Zeo++
# Zeo++ is an open source package to
# analyze microporous materials
#
#*******************************************

_cell_length_a		30.361   
_cell_length_b		30.361   
_cell_length_c		29.4868   
_cell_angle_alpha		90   
_cell_angle_beta		90   
_cell_angle_gamma		120   

_symmetry_space_group_name_H-M		'P1'
_symmetry_Int_Tables_number		1
_symmetry_cell_setting		Monoclinic

loop_
_symmetry_equiv_pos_as_xyz
'+x,+y,+z'

loop_
_atom_site_label
_atom_site_type_symbol
_atom_site_fract_x
_atom_site_fract_y
_atom_site_fract_z
1	C	0.1222	0.562833	0.993258
2	H	0.131525	0.637183	0.992203
3	H	0.131045	0.497733	0.999271
4	C	0.067333	0.536024	0.322796
5	N	0.041478	0.555923	0.011088
6	C	0.036376	0.48856	0.300839
7	N	0.057494	0.464269	0.275573
8	O	0.042601	0.42044	0.290939
9	O	0.043901	0.460051	0.234849
10	C	0.1222	0.562833	0.326589
11	H	0.131525	0.637183	0.325536
12	H	0.131045	0.497733	0.332605
13	C	0.067333	0.536024	0.656127
14	N	0.041478	0.555923	0.344422
15	C	0.036376	0.48856	0.634172
16	N	0.057494	0.464269	0.608906
17	O	0.042601	0.42044	0.624272
18	O	0.043901	0.460051	0.568183
19	C	0.1222	0.562833	0.659922
20	H	0.131525	0.637183	0.658868
21	H	0.131045	0.497733	0.665939
22	C	0.067333	0.536024	0.989463
23	N	0.041478	0.555923	0.677754
24	C	0.036376	0.48856	0.967504
25	N	0.057494	0.464269	0.942238
26	O	0.042601	0.42044	0.957605
27	O	0.043901	0.460051	0.901515
28	C	0.201754	0.562115	0.011598
29	C	0.22623	0.615406	0.016821
30	C	0.201894	0.644029	0.009253
31	C	0.150049	0.61706	0.996273
32	C	0.149781	0.536515	0.999169
33	C	0.231151	0.538295	0.0193
34	O	0.219381	0.53502	0.120069
35	C	0.231602	0.697373	0.015836
36	H	0.229217	0.722505	0.2825
37	C	0.201754	0.562115	0.344931
38	C	0.22623	0.615406	0.350153
39	C	0.201894	0.644029	0.342587
40	C	0.150049	0.61706	0.329608
41	C	0.149781	0.536515	0.332501
42	C	0.231151	0.538295	0.352632
43	O	0.219381	0.53502	0.453403
44	C	0.231602	0.697373	0.34917
45	H	0.229217	0.722505	0.615835
46	C	0.201754	0.562115	0.678266
47	C	0.22623	0.615406	0.683489
48	C	0.201894	0.644029	0.675919
49	C	0.150049	0.61706	0.662941
50	C	0.149781	0.536515	0.665833
51	C	0.231151	0.538295	0.685968
52	O	0.219381	0.53502	0.786735
53	C	0.231602	0.697373	0.682502
54	H	0.229217	0.722505	0.949167
55	H	0.26453	0.634627	0.023662
56	N	0.24641	0.522626	0.315347
57	C	0.263356	0.551789	0.057925
58	N	0.252852	0.571444	0.097518
59	C	0.247122	0.732838	0.313208
60	N	0.262454	0.712723	0.05283
61	H	0.26453	0.634627	0.356997
62	N	0.24641	0.522626	0.64868
63	C	0.263356	0.551789	0.39126
64	N	0.252852	0.571444	0.43085
65	C	0.247122	0.732838	0.64654
66	N	0.262454	0.712723	0.386163
67	H	0.26453	0.634627	0.690329
68	N	0.24641	0.522626	0.982016
69	C	0.263356	0.551789	0.724592
70	N	0.252852	0.571444	0.764186
71	C	0.247122	0.732838	0.979876
72	N	0.262454	0.712723	0.719498
73	C	0.459834	0.64396	0.012143
74	C	0.406546	0.615117	0.01741
75	C	0.377881	0.56224	0.009465
76	C	0.404801	0.537428	0.996117
77	C	0.459041	0.563784	0.993166
78	C	0.485372	0.617653	0.999301
79	H	0.384665	0.498798	0.991952
80	H	0.524149	0.6377	0.999318
81	H	0.387334	0.634171	0.024398
82	C	0.378068	0.820035	0.012394
83	C	0.407008	0.795717	0.017854
84	C	0.459912	0.820012	0.009985
85	C	0.484642	0.87171	0.996548
86	C	0.458189	0.899481	0.993451
87	C	0.404307	0.87185	0.999457
88	H	0.523275	0.890254	0.99238
89	H	0.384175	0.890494	0.999301
90	H	0.387989	0.757426	0.024717
91	C	0.823373	0.45778	0.011649
92	C	0.799911	0.404531	0.016818
93	C	0.82516	0.376838	0.008853
94	C	0.877091	0.404714	0.996208
95	C	0.904069	0.458986	0.99453
96	C	0.875429	0.484319	0.999501
97	H	0.896461	0.385333	0.993024
98	H	0.89319	0.523055	0.997039
99	H	0.761577	0.384587	0.023464
100	C	0.564143	0.370195	0.011997
101	C	0.617299	0.400028	0.017811
102	C	0.645062	0.452939	0.009642
103	C	0.61729	0.476956	0.99652
104	C	0.563033	0.449653	0.994543
105	C	0.537708	0.39567	0.999366
106	H	0.636685	0.5157	0.993282
107	H	0.499011	0.374659	0.99649
108	H	0.637198	0.381659	0.024759
109	C	0.651358	0.198537	0.011073
110	C	0.621451	0.221881	0.016219
111	C	0.568466	0.196389	0.008512
112	C	0.544469	0.144358	0.996256
113	C	0.571962	0.117595	0.994357
114	C	0.625955	0.146439	0.99906
115	H	0.505704	0.124817	0.993227
116	H	0.647042	0.1288	0.99651
117	H	0.639717	0.260226	0.022811
118	C	0.990001	0.534332	0.012639
119	C	0.958857	0.486879	0.32465
120	N	0.984561	0.46676	0.303251
121	H	0.974879	0.551964	0.031135
122	C	0.485851	0.535732	0.322614
123	N	0.465918	0.489922	0.010805
124	C	0.487544	0.460066	0.012353
125	C	0.535086	0.476481	0.324498
126	N	0.555251	0.522367	0.303209
127	C	0.533402	0.55234	0.300779
128	H	0.469879	0.427263	0.030788
129	N	0.557742	0.597816	0.275612
130	O	0.601519	0.626735	0.291092
131	O	0.562096	0.588555	0.234887
132	C	0.486184	0.954331	0.322777
133	N	0.53196	0.980326	0.011017
134	C	0.561771	0.031819	0.012449
135	C	0.545251	0.062815	0.324513
136	N	0.499413	0.03698	0.30317
137	C	0.469518	0.985152	0.30081
138	H	0.594499	0.047065	0.031
139	N	0.424078	0.963908	0.275584
140	O	0.39508	0.978725	0.29095
141	O	0.433384	0.977459	0.234846
142	C	0.289334	0.518689	0.313152
143	C	0.32454	0.53877	0.015981
144	N	0.308781	0.553881	0.052931
145	H	0.299932	0.51168	0.282338
146	O	0.290453	0.595537	0.123349
147	C	0.48365	0.697236	0.019631
148	N	0.499718	0.728244	0.315765
149	C	0.503583	0.775062	0.313605
150	C	0.483494	0.790214	0.016389
151	N	0.468121	0.759267	0.053304
152	C	0.470015	0.715826	0.058276
153	H	0.511103	0.793127	0.282978
154	N	0.450246	0.685667	0.09786
155	O	0.426191	0.699256	0.123657
156	O	0.486587	0.688492	0.12045
157	C	0.324752	0.790419	0.019607
158	N	0.293942	0.775754	0.315622
159	C	0.305936	0.75797	0.058089
160	N	0.335807	0.76801	0.09782
161	O	0.321854	0.730229	0.12352
162	O	0.333084	0.801566	0.120441
163	C	0.792954	0.480535	0.019213
164	N	0.777107	0.495448	0.31518
165	C	0.733546	0.498251	0.313062
166	C	0.698506	0.477451	0.015969
167	N	0.714872	0.463044	0.052968
168	C	0.760889	0.466437	0.057954
169	H	0.72227	0.504564	0.282298
170	N	0.772084	0.447379	0.097557
171	O	0.734544	0.422205	0.123195
172	O	0.804653	0.48427	0.120278
173	C	0.541396	0.316954	0.019051
174	N	0.526947	0.286758	0.314652
175	C	0.524083	0.2404	0.312096
176	C	0.543662	0.22496	0.015114
177	N	0.557835	0.255381	0.052359
178	C	0.554869	0.29821	0.057642
179	H	0.517962	0.223342	0.281079
180	N	0.573553	0.32789	0.097592
181	O	0.598376	0.315048	0.123188
182	O	0.536463	0.323346	0.120136
183	C	0.704572	0.229144	0.018314
184	N	0.7353	0.244797	0.314274
185	C	0.781581	0.288422	0.312106
186	C	0.796285	0.323383	0.015089
187	N	0.76545	0.307152	0.052068
188	C	0.722611	0.261303	0.057016
189	H	0.799488	0.299433	0.28144
190	N	0.692425	0.250197	0.096657
191	O	0.704828	0.287822	0.122196
192	O	0.696804	0.217706	0.119449
193	C	0.459834	0.64396	0.345477
194	C	0.406546	0.615117	0.350743
195	C	0.377881	0.56224	0.342797
196	C	0.404801	0.537428	0.329451
197	C	0.459041	0.563784	0.3265
198	C	0.485372	0.617653	0.332636
199	H	0.384665	0.498798	0.325284
200	H	0.524149	0.6377	0.332652
201	H	0.387334	0.634171	0.35773
202	C	0.378068	0.820035	0.345728
203	C	0.407008	0.795717	0.351188
204	C	0.459912	0.820012	0.34332
205	C	0.484642	0.87171	0.329882
206	C	0.458189	0.899481	0.326783
207	C	0.404307	0.87185	0.332791
208	H	0.523275	0.890254	0.325712
209	H	0.384175	0.890494	0.332636
210	H	0.387989	0.757426	0.358052
211	C	0.823373	0.45778	0.344981
212	C	0.799911	0.404531	0.350153
213	C	0.82516	0.376838	0.342187
214	C	0.877091	0.404714	0.329541
215	C	0.904069	0.458986	0.327863
216	C	0.875429	0.484319	0.332835
217	H	0.896461	0.385333	0.326358
218	H	0.89319	0.523055	0.330374
219	H	0.761577	0.384587	0.356797
220	C	0.564143	0.370195	0.345331
221	C	0.617299	0.400028	0.351144
222	C	0.645062	0.452939	0.342977
223	C	0.61729	0.476956	0.329855
224	C	0.563033	0.449653	0.327878
225	C	0.537708	0.39567	0.332698
226	H	0.636685	0.5157	0.326613
227	H	0.499011	0.374659	0.329822
228	H	0.637198	0.381659	0.358092
229	C	0.651358	0.198537	0.344408
230	C	0.621451	0.221881	0.349553
231	C	0.568466	0.196389	0.341844
232	C	0.544469	0.144358	0.329587
233	C	0.571962	0.117595	0.327691
234	C	0.625955	0.146439	0.332392
235	H	0.505704	0.124817	0.326561
236	H	0.647042	0.1288	0.329842
237	H	0.639717	0.260226	0.356146
238	C	0.990001	0.534332	0.345972
239	C	0.958857	0.486879	0.657982
240	N	0.984561	0.46676	0.636583
241	H	0.974879	0.551964	0.364468
242	C	0.485851	0.535732	0.655948
243	N	0.465918	0.489922	0.344137
244	C	0.487544	0.460066	0.345687
245	C	0.535086	0.476481	0.65783
246	N	0.555251	0.522367	0.636542
247	C	0.533402	0.55234	0.634111
248	H	0.469879	0.427263	0.364122
249	N	0.557742	0.597816	0.608947
250	O	0.601519	0.626735	0.624425
251	O	0.562096	0.588555	0.56822
252	C	0.486184	0.954331	0.65611
253	N	0.53196	0.980326	0.344351
254	C	0.561771	0.031819	0.345782
255	C	0.545251	0.062815	0.657847
256	N	0.499413	0.03698	0.636505
257	C	0.469518	0.985152	0.634145
258	H	0.594499	0.047065	0.364332
259	N	0.424078	0.963908	0.608916
260	O	0.39508	0.978725	0.624283
261	O	0.433384	0.977459	0.56818
262	C	0.289334	0.518689	0.646486
263	C	0.32454	0.53877	0.349316
264	N	0.308781	0.553881	0.386264
265	H	0.299932	0.51168	0.615672
266	O	0.290453	0.595537	0.456682
267	C	0.48365	0.697236	0.352965
268	N	0.499718	0.728244	0.649097
269	C	0.503583	0.775062	0.646937
270	C	0.483494	0.790214	0.349723
271	N	0.468121	0.759267	0.386637
272	C	0.470015	0.715826	0.391609
273	H	0.511103	0.793127	0.616313
274	N	0.450246	0.685667	0.431193
275	O	0.426191	0.699256	0.456991
276	O	0.486587	0.688492	0.453783
277	C	0.324752	0.790419	0.352941
278	N	0.293942	0.775754	0.648955
279	C	0.305936	0.75797	0.391423
280	N	0.335807	0.76801	0.431152
281	O	0.321854	0.730229	0.456852
282	O	0.333084	0.801566	0.453776
283	C	0.792954	0.480535	0.352548
284	N	0.777107	0.495448	0.648514
285	C	0.733546	0.498251	0.646394
286	C	0.698506	0.477451	0.349302
287	N	0.714872	0.463044	0.386302
288	C	0.760889	0.466437	0.391287
289	H	0.72227	0.504564	0.615631
290	N	0.772084	0.447379	0.430891
291	O	0.734544	0.422205	0.45653
292	O	0.804653	0.48427	0.453613
293	C	0.541396	0.316954	0.352385
294	N	0.526947	0.286758	0.647985
295	C	0.524083	0.2404	0.645428
296	C	0.543662	0.22496	0.348447
297	N	0.557835	0.255381	0.385691
298	C	0.554869	0.29821	0.390975
299	H	0.517962	0.223342	0.61441
300	N	0.573553	0.32789	0.430925
301	O	0.598376	0.315048	0.456523
302	O	0.536463	0.323346	0.453471
303	C	0.704572	0.229144	0.351649
304	N	0.7353	0.244797	0.647608
305	C	0.781581	0.288422	0.645438
306	C	0.796285	0.323383	0.348424
307	N	0.76545	0.307152	0.385403
308	C	0.722611	0.261303	0.390351
309	H	0.799488	0.299433	0.614773
310	N	0.692425	0.250197	0.429992
311	O	0.704828	0.287822	0.455529
312	O	0.696804	0.217706	0.452782
313	C	0.459834	0.64396	0.678809
314	C	0.406546	0.615117	0.684076
315	C	0.377881	0.56224	0.676133
316	C	0.404801	0.537428	0.662785
317	C	0.459041	0.563784	0.659834
318	C	0.485372	0.617653	0.665969
319	H	0.384665	0.498798	0.658617
320	H	0.524149	0.6377	0.665986
321	H	0.387334	0.634171	0.691065
322	C	0.378068	0.820035	0.67906
323	C	0.407008	0.795717	0.68452
324	C	0.459912	0.820012	0.676652
325	C	0.484642	0.87171	0.663215
326	C	0.458189	0.899481	0.660116
327	C	0.404307	0.87185	0.666125
328	H	0.523275	0.890254	0.659044
329	H	0.384175	0.890494	0.665969
330	H	0.387989	0.757426	0.691384
331	C	0.823373	0.45778	0.678317
332	C	0.799911	0.404531	0.683485
333	C	0.82516	0.376838	0.675519
334	C	0.877091	0.404714	0.662873
335	C	0.904069	0.458986	0.661197
336	C	0.875429	0.484319	0.666169
337	H	0.896461	0.385333	0.659692
338	H	0.89319	0.523055	0.663707
339	H	0.761577	0.384587	0.690132
340	C	0.564143	0.370195	0.678663
341	C	0.617299	0.400028	0.684479
342	C	0.645062	0.452939	0.676309
343	C	0.61729	0.476956	0.663188
344	C	0.563033	0.449653	0.661211
345	C	0.537708	0.39567	0.66603
346	H	0.636685	0.5157	0.659946
347	H	0.499011	0.374659	0.663154
348	H	0.637198	0.381659	0.691425
349	C	0.651358	0.198537	0.67774
350	C	0.621451	0.221881	0.682885
351	C	0.568466	0.196389	0.675177
352	C	0.544469	0.144358	0.66292
353	C	0.571962	0.117595	0.661025
354	C	0.625955	0.146439	0.665725
355	H	0.505704	0.124817	0.659895
356	H	0.647042	0.1288	0.663175
357	H	0.639717	0.260226	0.689478
358	C	0.990001	0.534332	0.679307
359	C	0.958857	0.486879	0.991318
360	N	0.984561	0.46676	0.969919
361	H	0.974879	0.551964	0.6978
362	C	0.485851	0.535732	0.98928
363	N	0.465918	0.489922	0.677473
364	C	0.487544	0.460066	0.679019
365	C	0.535086	0.476481	0.991165
366	N	0.555251	0.522367	0.969875
367	C	0.533402	0.55234	0.967446
368	H	0.469879	0.427263	0.697454
369	N	0.557742	0.597816	0.942279
370	O	0.601519	0.626735	0.957757
371	O	0.562096	0.588555	0.901552
372	C	0.486184	0.954331	0.989443
373	N	0.53196	0.980326	0.677683
374	C	0.561771	0.031819	0.679117
375	C	0.545251	0.062815	0.991179
376	N	0.499413	0.03698	0.969837
377	C	0.469518	0.985152	0.967477
378	H	0.594499	0.047065	0.697668
379	N	0.424078	0.963908	0.942252
380	O	0.39508	0.978725	0.957618
381	O	0.433384	0.977459	0.901512
382	C	0.289334	0.518689	0.979818
383	C	0.32454	0.53877	0.682648
384	N	0.308781	0.553881	0.719596
385	H	0.299932	0.51168	0.949004
386	O	0.290453	0.595537	0.790014
387	C	0.48365	0.697236	0.686297
388	N	0.499718	0.728244	0.982433
389	C	0.503583	0.775062	0.980272
390	C	0.483494	0.790214	0.683055
391	N	0.468121	0.759267	0.71997
392	C	0.470015	0.715826	0.724941
393	H	0.511103	0.793127	0.949645
394	N	0.450246	0.685667	0.764525
395	O	0.426191	0.699256	0.790323
396	O	0.486587	0.688492	0.787115
397	C	0.324752	0.790419	0.686273
398	N	0.293942	0.775754	0.982287
399	C	0.305936	0.75797	0.724755
400	N	0.335807	0.76801	0.764488
401	O	0.321854	0.730229	0.790187
402	O	0.333084	0.801566	0.787108
403	C	0.792954	0.480535	0.68588
404	N	0.777107	0.495448	0.981846
405	C	0.733546	0.498251	0.97973
406	C	0.698506	0.477451	0.682638
407	N	0.714872	0.463044	0.719634
408	C	0.760889	0.466437	0.724622
409	H	0.72227	0.504564	0.948967
410	N	0.772084	0.447379	0.764223
411	O	0.734544	0.422205	0.789862
412	O	0.804653	0.48427	0.786945
413	C	0.541396	0.316954	0.685717
414	N	0.526947	0.286758	0.981317
415	C	0.524083	0.2404	0.978763
416	C	0.543662	0.22496	0.68178
417	N	0.557835	0.255381	0.719027
418	C	0.554869	0.29821	0.72431
419	H	0.517962	0.223342	0.947746
420	N	0.573553	0.32789	0.764257
421	O	0.598376	0.315048	0.789855
422	O	0.536463	0.323346	0.786803
423	C	0.704572	0.229144	0.684981
424	N	0.7353	0.244797	0.980941
425	C	0.781581	0.288422	0.978773
426	C	0.796285	0.323383	0.681756
427	N	0.76545	0.307152	0.718735
428	C	0.722611	0.261303	0.723683
429	H	0.799488	0.299433	0.948105
430	N	0.692425	0.250197	0.763325
431	O	0.704828	0.287822	0.788861
432	O	0.696804	0.217706	0.786114
