data_C144H108N54_2018-02-15_10:44:58
#******************************************
#
# CIF file created by Zeo++
# Zeo++ is an open source package to
# analyze microporous materials
#
#*******************************************

_cell_length_a		29.2449   
_cell_length_b		29.2449   
_cell_length_c		30.0184   
_cell_angle_alpha		90   
_cell_angle_beta		90   
_cell_angle_gamma		120   

_symmetry_space_group_name_H-M		'P1'
_symmetry_Int_Tables_number		1
_symmetry_cell_setting		Monoclinic

loop_
_symmetry_equiv_pos_as_xyz
'+x,+y,+z'

loop_
_atom_site_label
_atom_site_type_symbol
_atom_site_fract_x
_atom_site_fract_y
_atom_site_fract_z
1	C	0.348015	0.718898	0.997959
2	N	0.29608	0.681313	0.998046
3	C	0.280345	0.628977	0.997986
4	N	0.317931	0.614629	0.998042
5	C	0.370264	0.65123	0.997956
6	N	0.384613	0.703163	0.998016
7	C	0.408568	0.636977	0.998512
8	C	0.362266	0.771451	0.998519
9	C	0.227791	0.590674	0.998579
10	H	0.218333	0.552959	0.998592
11	H	0.334012	0.780915	0.998519
12	H	0.446286	0.665235	0.998492
13	C	0.650472	0.280405	0.0105
14	N	0.70257	0.317472	0.010771
15	C	0.718833	0.369919	0.010513
16	N	0.681767	0.384951	0.010782
17	C	0.629319	0.348765	0.010517
18	N	0.614288	0.296667	0.010776
19	C	0.591704	0.363807	0.012392
20	C	0.635427	0.227746	0.012373
21	C	0.771495	0.407524	0.012384
22	H	0.781663	0.443885	0.022341
23	H	0.661617	0.217579	0.022332
24	H	0.555348	0.337612	0.022352
25	C	0.571688	0.431526	0.002122
26	C	0.544592	0.431471	0.041087
27	C	0.513422	0.456078	0.042271
28	C	0.509749	0.48126	0.002907
29	C	0.537379	0.481774	0.297431
30	C	0.568508	0.457606	0.297216
31	H	0.535483	0.500209	0.269051
32	H	0.588504	0.458806	0.268844
33	C	0.479964	0.507399	0.001198
34	C	0.505304	0.560978	0.01419
35	C	0.478059	0.589142	0.013453
36	C	0.424859	0.564425	0.332829
37	C	0.399501	0.510743	0.320401
38	C	0.426164	0.481481	0.320793
39	H	0.543849	0.579962	0.024542
40	H	0.497322	0.627627	0.023676
41	H	0.360731	0.492572	0.310684
42	H	0.548255	0.413731	0.069205
43	N	0.488462	0.454885	0.080894
44	H	0.491647	0.437516	0.107415
45	H	0.466584	0.471109	0.083364
46	N	0.399387	0.429844	0.308264
47	H	0.415905	0.408124	0.30814
48	H	0.362568	0.412886	0.299058
49	N	0.602848	0.410707	0.001288
50	N	0.39619	0.588163	0.332014
51	C	0.567677	0.140015	0.002132
52	C	0.567713	0.112985	0.041109
53	C	0.543118	0.057209	0.042297
54	C	0.517999	0.028349	0.002918
55	C	0.517546	0.055463	0.29742
56	C	0.541692	0.110756	0.2972
57	H	0.499155	0.035126	0.269028
58	H	0.540529	0.12955	0.268813
59	C	0.491861	0.972423	0.001215
60	C	0.438283	0.944188	0.014208
61	C	0.410118	0.888781	0.013474
62	C	0.434827	0.860293	0.33284
63	C	0.488507	0.888615	0.320407
64	C	0.517772	0.94454	0.320804
65	H	0.419302	0.963749	0.024573
66	H	0.37163	0.869556	0.023701
67	H	0.506675	0.868012	0.310688
68	H	0.585413	0.134392	0.069236
69	N	0.544272	0.033446	0.080936
70	H	0.561601	0.054004	0.107467
71	H	0.528065	0.995347	0.083408
72	N	0.569411	0.969395	0.308279
73	H	0.591137	0.007635	0.30816
74	H	0.586366	0.949534	0.299067
75	N	0.588515	0.191998	0.00129
76	N	0.411082	0.807886	0.332017
77	C	0.859222	0.427499	0.002141
78	C	0.886249	0.454561	0.041121
79	C	0.942028	0.485742	0.042313
80	C	0.97089	0.489473	0.002939
81	C	0.943781	0.461913	0.297437
82	C	0.888485	0.43078	0.297209
83	H	0.964115	0.46386	0.269046
84	H	0.869693	0.410821	0.268823
85	C	0.026814	0.519267	0.00124
86	C	0.055056	0.493927	0.014226
87	C	0.110464	0.521182	0.013513
88	C	0.138946	0.574391	0.332917
89	C	0.110621	0.599739	0.320465
90	C	0.054695	0.573068	0.320848
91	H	0.035498	0.455379	0.024571
92	H	0.129688	0.501914	0.023724
93	H	0.131218	0.638512	0.310756
94	H	0.86484	0.450854	0.069246
95	N	0.965787	0.510652	0.080954
96	H	0.945225	0.507442	0.107479
97	H	0.003886	0.53255	0.083427
98	N	0.029832	0.599846	0.308319
99	H	0.991594	0.583322	0.308187
100	H	0.049691	0.636665	0.299118
101	N	0.80724	0.396362	0.001298
102	N	0.191356	0.603052	0.332073
103	C	0.348015	0.718898	0.331293
104	N	0.29608	0.681313	0.33138
105	C	0.280345	0.628977	0.331319
106	N	0.317931	0.614629	0.331377
107	C	0.370264	0.65123	0.33129
108	N	0.384613	0.703163	0.331349
109	C	0.408568	0.636977	0.331845
110	C	0.362266	0.771451	0.331853
111	C	0.227791	0.590674	0.331912
112	H	0.218333	0.552959	0.331925
113	H	0.334012	0.780915	0.331852
114	H	0.446286	0.665235	0.331826
115	C	0.650472	0.280405	0.343833
116	N	0.70257	0.317472	0.344103
117	C	0.718833	0.369919	0.343846
118	N	0.681767	0.384951	0.344116
119	C	0.629319	0.348765	0.343849
120	N	0.614288	0.296667	0.344109
121	C	0.591704	0.363807	0.345725
122	C	0.635427	0.227746	0.345705
123	C	0.771495	0.407524	0.345718
124	H	0.781663	0.443885	0.355676
125	H	0.661617	0.217579	0.355666
126	H	0.555348	0.337612	0.355686
127	C	0.571688	0.431526	0.335455
128	C	0.544592	0.431471	0.374421
129	C	0.513422	0.456078	0.375603
130	C	0.509749	0.48126	0.336241
131	C	0.537379	0.481774	0.630764
132	C	0.568508	0.457606	0.630547
133	H	0.535483	0.500209	0.602385
134	H	0.588504	0.458806	0.602178
135	C	0.479964	0.507399	0.334532
136	C	0.505304	0.560978	0.347524
137	C	0.478059	0.589142	0.346788
138	C	0.424859	0.564425	0.666162
139	C	0.399501	0.510743	0.653733
140	C	0.426164	0.481481	0.654126
141	H	0.543849	0.579962	0.357874
142	H	0.497322	0.627627	0.357008
143	H	0.360731	0.492572	0.644016
144	H	0.548255	0.413731	0.402537
145	N	0.488462	0.454885	0.414226
146	H	0.491647	0.437516	0.440747
147	H	0.466584	0.471109	0.416698
148	N	0.399387	0.429844	0.641597
149	H	0.415905	0.408124	0.641474
150	H	0.362568	0.412886	0.632389
151	N	0.602848	0.410707	0.334622
152	N	0.39619	0.588163	0.665346
153	C	0.567677	0.140015	0.335465
154	C	0.567713	0.112985	0.374441
155	C	0.543118	0.057209	0.37563
156	C	0.517999	0.028349	0.336251
157	C	0.517546	0.055463	0.630754
158	C	0.541692	0.110756	0.630534
159	H	0.499155	0.035126	0.602361
160	H	0.540529	0.12955	0.602145
161	C	0.491861	0.972423	0.334549
162	C	0.438283	0.944188	0.347541
163	C	0.410118	0.888781	0.346808
164	C	0.434827	0.860293	0.666172
165	C	0.488507	0.888615	0.65374
166	C	0.517772	0.94454	0.654136
167	H	0.419302	0.963749	0.357908
168	H	0.37163	0.869556	0.357035
169	H	0.506675	0.868012	0.644022
170	H	0.585413	0.134392	0.40257
171	N	0.544272	0.033446	0.41427
172	H	0.561601	0.054004	0.4408
173	H	0.528065	0.995347	0.416742
174	N	0.569411	0.969395	0.64161
175	H	0.591137	0.007635	0.641494
176	H	0.586366	0.949534	0.632399
177	N	0.588515	0.191998	0.334622
178	N	0.411082	0.807886	0.665349
179	C	0.859222	0.427499	0.335475
180	C	0.886249	0.454561	0.374454
181	C	0.942028	0.485742	0.375647
182	C	0.97089	0.489473	0.336271
183	C	0.943781	0.461913	0.63077
184	C	0.888485	0.43078	0.630544
185	H	0.964115	0.46386	0.602378
186	H	0.869693	0.410821	0.602155
187	C	0.026814	0.519267	0.334572
188	C	0.055056	0.493927	0.347561
189	C	0.110464	0.521182	0.346844
190	C	0.138946	0.574391	0.666252
191	C	0.110621	0.599739	0.6538
192	C	0.054695	0.573068	0.654179
193	H	0.035498	0.455379	0.357904
194	H	0.129688	0.501914	0.357058
195	H	0.131218	0.638512	0.644089
196	H	0.86484	0.450854	0.40258
197	N	0.965787	0.510652	0.414286
198	H	0.945225	0.507442	0.44081
199	H	0.003886	0.53255	0.416758
200	N	0.029832	0.599846	0.64165
201	H	0.991594	0.583322	0.641521
202	H	0.049691	0.636665	0.632449
203	N	0.80724	0.396362	0.334632
204	N	0.191356	0.603052	0.665406
205	C	0.348015	0.718898	0.664626
206	N	0.29608	0.681313	0.664713
207	C	0.280345	0.628977	0.664653
208	N	0.317931	0.614629	0.66471
209	C	0.370264	0.65123	0.664623
210	N	0.384613	0.703163	0.664683
211	C	0.408568	0.636977	0.665179
212	C	0.362266	0.771451	0.665186
213	C	0.227791	0.590674	0.665246
214	H	0.218333	0.552959	0.665259
215	H	0.334012	0.780915	0.665186
216	H	0.446286	0.665235	0.665159
217	C	0.650472	0.280405	0.677165
218	N	0.70257	0.317472	0.677439
219	C	0.718833	0.369919	0.677179
220	N	0.681767	0.384951	0.677449
221	C	0.629319	0.348765	0.677182
222	N	0.614288	0.296667	0.677442
223	C	0.591704	0.363807	0.679058
224	C	0.635427	0.227746	0.679038
225	C	0.771495	0.407524	0.679051
226	H	0.781663	0.443885	0.689008
227	H	0.661617	0.217579	0.688998
228	H	0.555348	0.337612	0.689018
229	C	0.571688	0.431526	0.668787
230	C	0.544592	0.431471	0.707753
231	C	0.513422	0.456078	0.708936
232	C	0.509749	0.48126	0.669573
233	C	0.537379	0.481774	0.964096
234	C	0.568508	0.457606	0.963883
235	H	0.535483	0.500209	0.935717
236	H	0.588504	0.458806	0.935511
237	C	0.479964	0.507399	0.667864
238	C	0.505304	0.560978	0.680856
239	C	0.478059	0.589142	0.68012
240	C	0.424859	0.564425	0.999495
241	C	0.399501	0.510743	0.987069
242	C	0.426164	0.481481	0.987459
243	H	0.543849	0.579962	0.691207
244	H	0.497322	0.627627	0.690341
245	H	0.360731	0.492572	0.977352
246	H	0.548255	0.413731	0.735873
247	N	0.488462	0.454885	0.747559
248	H	0.491647	0.437516	0.774083
249	H	0.466584	0.471109	0.750031
250	N	0.399387	0.429844	0.97493
251	H	0.415905	0.408124	0.974806
252	H	0.362568	0.412886	0.965722
253	N	0.602848	0.410707	0.667954
254	N	0.39619	0.588163	0.998679
255	C	0.567677	0.140015	0.668797
256	C	0.567713	0.112985	0.707777
257	C	0.543118	0.057209	0.708963
258	C	0.517999	0.028349	0.669583
259	C	0.517546	0.055463	0.964086
260	C	0.541692	0.110756	0.963867
261	H	0.499155	0.035126	0.935694
262	H	0.540529	0.12955	0.935477
263	C	0.491861	0.972423	0.667881
264	C	0.438283	0.944188	0.680873
265	C	0.410118	0.888781	0.68014
266	C	0.434827	0.860293	0.999505
267	C	0.488507	0.888615	0.987072
268	C	0.517772	0.94454	0.987469
269	H	0.419302	0.963749	0.69124
270	H	0.37163	0.869556	0.690367
271	H	0.506675	0.868012	0.977355
272	H	0.585413	0.134392	0.735903
273	N	0.544272	0.033446	0.747602
274	H	0.561601	0.054004	0.774133
275	H	0.528065	0.995347	0.750074
276	N	0.569411	0.969395	0.974946
277	H	0.591137	0.007635	0.974826
278	H	0.586366	0.949534	0.965732
279	N	0.588515	0.191998	0.667954
280	N	0.411082	0.807886	0.998682
281	C	0.859222	0.427499	0.668807
282	C	0.886249	0.454561	0.707787
283	C	0.942028	0.485742	0.708979
284	C	0.97089	0.489473	0.669607
285	C	0.943781	0.461913	0.964103
286	C	0.888485	0.43078	0.963877
287	H	0.964115	0.46386	0.93571
288	H	0.869693	0.410821	0.935491
289	C	0.026814	0.519267	0.667904
290	C	0.055056	0.493927	0.680893
291	C	0.110464	0.521182	0.68018
292	C	0.138946	0.574391	0.999585
293	C	0.110621	0.599739	0.987132
294	C	0.054695	0.573068	0.987515
295	H	0.035498	0.455379	0.691237
296	H	0.129688	0.501914	0.690391
297	H	0.131218	0.638512	0.977422
298	H	0.86484	0.450854	0.735913
299	N	0.965787	0.510652	0.747619
300	H	0.945225	0.507442	0.774146
301	H	0.003886	0.53255	0.750094
302	N	0.029832	0.599846	0.974986
303	H	0.991594	0.583322	0.974853
304	H	0.049691	0.636665	0.965782
305	N	0.80724	0.396362	0.667964
306	N	0.191356	0.603052	0.998739
