data_C216H108N54_2018-02-15_10:39:53
#******************************************
#
# CIF file created by Zeo++
# Zeo++ is an open source package to
# analyze microporous materials
#
#*******************************************

_cell_length_a		30.1895   
_cell_length_b		30.1895   
_cell_length_c		29.3932   
_cell_angle_alpha		90   
_cell_angle_beta		90   
_cell_angle_gamma		120   

_symmetry_space_group_name_H-M		'P1'
_symmetry_Int_Tables_number		1
_symmetry_cell_setting		Monoclinic

loop_
_symmetry_equiv_pos_as_xyz
'+x,+y,+z'

loop_
_atom_site_label
_atom_site_type_symbol
_atom_site_fract_x
_atom_site_fract_y
_atom_site_fract_z
1	C	0.150069	0.618186	0.009626
2	C	0.122791	0.563995	0.009976
3	C	0.150036	0.537053	0.010672
4	H	0.130592	0.637906	0.009218
5	H	0.130538	0.497856	0.010806
6	N	0.042489	0.523846	0.04958
7	C	0.068761	0.536988	0.342964
8	C	0.040353	0.522802	0.302135
9	H	0.058027	0.531633	0.271117
10	C	0.150069	0.618186	0.342961
11	C	0.122791	0.563995	0.343311
12	C	0.150036	0.537053	0.344005
13	H	0.130592	0.637906	0.342549
14	H	0.130538	0.497856	0.344138
15	N	0.042489	0.523846	0.382912
16	C	0.068761	0.536988	0.676297
17	C	0.040353	0.522802	0.635467
18	H	0.058027	0.531633	0.60445
19	C	0.150069	0.618186	0.676293
20	C	0.122791	0.563995	0.676644
21	C	0.150036	0.537053	0.677338
22	H	0.130592	0.637906	0.675882
23	H	0.130538	0.497856	0.67747
24	N	0.042489	0.523846	0.716245
25	C	0.068761	0.536988	0.009629
26	C	0.040353	0.522802	0.9688
27	H	0.058027	0.531633	0.937783
28	C	0.204051	0.563781	0.010876
29	C	0.230419	0.617784	0.010585
30	C	0.204082	0.645445	0.010004
31	H	0.269724	0.637428	0.010739
32	N	0.258111	0.541635	0.304996
33	C	0.233135	0.539111	0.010979
34	C	0.258146	0.539317	0.051706
35	H	0.246177	0.545143	0.082541
36	C	0.258208	0.724118	0.302612
37	N	0.258164	0.721548	0.049334
38	C	0.233196	0.6992	0.009983
39	H	0.246152	0.706363	0.271768
40	C	0.204051	0.563781	0.344209
41	C	0.230419	0.617784	0.343917
42	C	0.204082	0.645445	0.343338
43	H	0.269724	0.637428	0.344073
44	N	0.258111	0.541635	0.638329
45	C	0.233135	0.539111	0.344311
46	C	0.258146	0.539317	0.385038
47	H	0.246177	0.545143	0.415872
48	C	0.258208	0.724118	0.635944
49	N	0.258164	0.721548	0.382667
50	C	0.233196	0.6992	0.343318
51	H	0.246152	0.706363	0.6051
52	C	0.204051	0.563781	0.677542
53	C	0.230419	0.617784	0.677249
54	C	0.204082	0.645445	0.676671
55	H	0.269724	0.637428	0.677406
56	N	0.258111	0.541635	0.971661
57	C	0.233135	0.539111	0.677644
58	C	0.258146	0.539317	0.718371
59	H	0.246177	0.545143	0.749208
60	C	0.258208	0.724118	0.969276
61	N	0.258164	0.721548	0.716
62	C	0.233196	0.6992	0.676651
63	H	0.246152	0.706363	0.938432
64	C	0.301718	0.53913	0.302615
65	N	0.30427	0.541861	0.049313
66	C	0.326626	0.539134	0.010017
67	H	0.319474	0.544764	0.271779
68	N	0.304298	0.767756	0.305026
69	C	0.326535	0.792636	0.011093
70	C	0.301725	0.767679	0.051808
71	H	0.319482	0.779655	0.082656
72	C	0.301718	0.53913	0.635947
73	N	0.30427	0.541861	0.382647
74	C	0.326626	0.539134	0.343349
75	H	0.319474	0.544764	0.605113
76	N	0.304298	0.767756	0.638359
77	C	0.326535	0.792636	0.344427
78	C	0.301725	0.767679	0.385141
79	H	0.319482	0.779655	0.415988
80	C	0.301718	0.53913	0.96928
81	N	0.30427	0.541861	0.715979
82	C	0.326626	0.539134	0.676681
83	H	0.319474	0.544764	0.938446
84	N	0.304298	0.767756	0.971692
85	C	0.326535	0.792636	0.67776
86	C	0.301725	0.767679	0.718473
87	H	0.319482	0.779655	0.74932
88	C	0.462034	0.645434	0.01091
89	C	0.408031	0.617788	0.010656
90	C	0.380381	0.563789	0.010048
91	C	0.407656	0.537053	0.009605
92	C	0.461844	0.563976	0.009956
93	C	0.488775	0.618163	0.010664
94	H	0.387946	0.497856	0.009184
95	H	0.527975	0.637872	0.010788
96	H	0.388381	0.637444	0.010831
97	C	0.380309	0.821717	0.010915
98	C	0.407957	0.79536	0.010672
99	C	0.461954	0.821709	0.010024
100	C	0.488695	0.87572	0.009561
101	C	0.46177	0.902983	0.009932
102	C	0.407587	0.875731	0.010676
103	H	0.527893	0.895207	0.009126
104	H	0.38788	0.895222	0.010824
105	H	0.388303	0.756056	0.010872
106	C	0.826826	0.456854	0.010663
107	C	0.800479	0.402855	0.010133
108	C	0.826837	0.37521	0.009782
109	C	0.880854	0.402488	0.009925
110	C	0.908111	0.45667	0.010604
111	C	0.880843	0.483593	0.010989
112	H	0.900344	0.382778	0.009769
113	H	0.900328	0.52279	0.011409
114	H	0.761176	0.383203	0.010044
115	C	0.56899	0.375206	0.010683
116	C	0.622994	0.402836	0.010109
117	C	0.650658	0.456839	0.009772
118	C	0.623399	0.483593	0.009915
119	C	0.569216	0.456686	0.010628
120	C	0.542271	0.402499	0.011035
121	H	0.643122	0.522794	0.009735
122	H	0.503076	0.382805	0.01147
123	H	0.642631	0.383168	0.00999
124	C	0.650651	0.198919	0.010644
125	C	0.623006	0.225275	0.010048
126	C	0.569004	0.198921	0.009742
127	C	0.542257	0.144909	0.009918
128	C	0.56918	0.117648	0.010644
129	C	0.62337	0.144907	0.011049
130	H	0.503059	0.125422	0.009745
131	H	0.643075	0.125415	0.011497
132	H	0.642665	0.264579	0.009912
133	C	0.990547	0.497898	0.051775
134	N	0.988413	0.496816	0.30433
135	C	0.962139	0.483685	0.344281
136	H	0.972874	0.489051	0.082793
137	C	0.527972	0.497883	0.051782
138	N	0.502004	0.523854	0.049575
139	C	0.488864	0.536973	0.34295
140	C	0.50308	0.522771	0.302127
141	N	0.529086	0.496839	0.304335
142	C	0.542217	0.483712	0.344294
143	H	0.536808	0.489055	0.082804
144	H	0.494253	0.53161	0.271107
145	C	0.527928	0.035197	0.051786
146	N	0.501912	0.983259	0.049569
147	C	0.488789	0.957009	0.342937
148	C	0.503045	0.985435	0.302122
149	N	0.529023	0.037374	0.304339
150	C	0.542158	0.063624	0.344301
151	H	0.536751	0.052855	0.082811
152	H	0.494213	0.967776	0.271098
153	C	0.486666	0.767729	0.302617
154	N	0.484183	0.721628	0.305013
155	C	0.4867	0.699188	0.011006
156	C	0.486461	0.723988	0.051725
157	N	0.483897	0.767557	0.049317
158	C	0.486621	0.792621	0.01001
159	H	0.481037	0.779842	0.271774
160	H	0.480631	0.706199	0.082563
161	C	0.729285	0.48139	0.302258
162	N	0.772893	0.4789	0.30473
163	C	0.797736	0.481536	0.010823
164	C	0.772755	0.481394	0.051531
165	N	0.726631	0.478866	0.049058
166	C	0.70443	0.481513	0.009629
167	H	0.71152	0.47568	0.271421
168	H	0.784716	0.475603	0.082384
169	C	0.54447	0.253153	0.302308
170	N	0.546928	0.299235	0.304752
171	C	0.544273	0.321433	0.010828
172	C	0.544387	0.296573	0.051513
173	N	0.546968	0.253016	0.048954
174	C	0.544364	0.228013	0.009599
175	H	0.550187	0.241149	0.271449
176	H	0.550192	0.314297	0.082382
177	C	0.772703	0.296595	0.302349
178	N	0.726625	0.252959	0.304754
179	C	0.704423	0.228007	0.0108
180	C	0.729267	0.25289	0.05153
181	N	0.772824	0.299043	0.049078
182	C	0.79775	0.321455	0.009725
183	H	0.784731	0.31439	0.27152
184	H	0.711528	0.24087	0.082382
185	C	0.462034	0.645434	0.344243
186	C	0.408031	0.617788	0.343988
187	C	0.380381	0.563789	0.343383
188	C	0.407656	0.537053	0.342937
189	C	0.461844	0.563976	0.343287
190	C	0.488775	0.618163	0.343998
191	H	0.387946	0.497856	0.342518
192	H	0.527975	0.637872	0.344121
193	H	0.388381	0.637444	0.344165
194	C	0.380309	0.821717	0.344247
195	C	0.407957	0.79536	0.344005
196	C	0.461954	0.821709	0.343355
197	C	0.488695	0.87572	0.342893
198	C	0.46177	0.902983	0.343267
199	C	0.407587	0.875731	0.344009
200	H	0.527893	0.895207	0.342461
201	H	0.38788	0.895222	0.344158
202	H	0.388303	0.756056	0.344206
203	C	0.826826	0.456854	0.343995
204	C	0.800479	0.402855	0.343464
205	C	0.826837	0.37521	0.343117
206	C	0.880854	0.402488	0.343257
207	C	0.908111	0.45667	0.343937
208	C	0.880843	0.483593	0.344322
209	H	0.900344	0.382778	0.343104
210	H	0.900328	0.52279	0.34474
211	H	0.761176	0.383203	0.343379
212	C	0.56899	0.375206	0.344015
213	C	0.622994	0.402836	0.34344
214	C	0.650658	0.456839	0.343104
215	C	0.623399	0.483593	0.343246
216	C	0.569216	0.456686	0.343961
217	C	0.542271	0.402499	0.344369
218	H	0.643122	0.522794	0.34307
219	H	0.503076	0.382805	0.344805
220	H	0.642631	0.383168	0.343325
221	C	0.650651	0.198919	0.343978
222	C	0.623006	0.225275	0.343383
223	C	0.569004	0.198921	0.343073
224	C	0.542257	0.144909	0.343253
225	C	0.56918	0.117648	0.343978
226	C	0.62337	0.144907	0.344383
227	H	0.503059	0.125422	0.34308
228	H	0.643075	0.125415	0.344828
229	H	0.642665	0.264579	0.343246
230	C	0.990547	0.497898	0.385107
231	N	0.988413	0.496816	0.637662
232	C	0.962139	0.483685	0.677613
233	H	0.972874	0.489051	0.416124
234	C	0.527972	0.497883	0.385117
235	N	0.502004	0.523854	0.382909
236	C	0.488864	0.536973	0.676283
237	C	0.50308	0.522771	0.635461
238	N	0.529086	0.496839	0.637669
239	C	0.542217	0.483712	0.677627
240	H	0.536808	0.489055	0.416138
241	H	0.494253	0.53161	0.60444
242	C	0.527928	0.035197	0.38512
243	N	0.501912	0.983259	0.382902
244	C	0.488789	0.957009	0.676273
245	C	0.503045	0.985435	0.635454
246	N	0.529023	0.037374	0.637672
247	C	0.542158	0.063624	0.677634
248	H	0.536751	0.052855	0.416144
249	H	0.494213	0.967776	0.60443
250	C	0.486666	0.767729	0.635951
251	N	0.484183	0.721628	0.638346
252	C	0.4867	0.699188	0.344339
253	C	0.486461	0.723988	0.385059
254	N	0.483897	0.767557	0.38265
255	C	0.486621	0.792621	0.343345
256	H	0.481037	0.779842	0.605107
257	H	0.480631	0.706199	0.415896
258	C	0.729285	0.48139	0.63559
259	N	0.772893	0.4789	0.638063
260	C	0.797736	0.481536	0.344155
261	C	0.772755	0.481394	0.384865
262	N	0.726631	0.478866	0.382392
263	C	0.70443	0.481513	0.342964
264	H	0.71152	0.47568	0.604753
265	H	0.784716	0.475603	0.415719
266	C	0.54447	0.253153	0.635641
267	N	0.546928	0.299235	0.638084
268	C	0.544273	0.321433	0.344162
269	C	0.544387	0.296573	0.384845
270	N	0.546968	0.253016	0.382286
271	C	0.544364	0.228013	0.342933
272	H	0.550187	0.241149	0.604783
273	H	0.550192	0.314297	0.415716
274	C	0.772703	0.296595	0.635682
275	N	0.726625	0.252959	0.638087
276	C	0.704423	0.228007	0.344134
277	C	0.729267	0.25289	0.384862
278	N	0.772824	0.299043	0.382412
279	C	0.79775	0.321455	0.343059
280	H	0.784731	0.31439	0.604855
281	H	0.711528	0.24087	0.415716
282	C	0.462034	0.645434	0.677576
283	C	0.408031	0.617788	0.677321
284	C	0.380381	0.563789	0.676715
285	C	0.407656	0.537053	0.676273
286	C	0.461844	0.563976	0.67662
287	C	0.488775	0.618163	0.677331
288	H	0.387946	0.497856	0.675851
289	H	0.527975	0.637872	0.677453
290	H	0.388381	0.637444	0.677498
291	C	0.380309	0.821717	0.677583
292	C	0.407957	0.79536	0.677338
293	C	0.461954	0.821709	0.676691
294	C	0.488695	0.87572	0.676229
295	C	0.46177	0.902983	0.676599
296	C	0.407587	0.875731	0.677341
297	H	0.527893	0.895207	0.675793
298	H	0.38788	0.895222	0.677491
299	H	0.388303	0.756056	0.677538
300	C	0.826826	0.456854	0.677331
301	C	0.800479	0.402855	0.676797
302	C	0.826837	0.37521	0.67645
303	C	0.880854	0.402488	0.676593
304	C	0.908111	0.45667	0.67727
305	C	0.880843	0.483593	0.677654
306	H	0.900344	0.382778	0.676436
307	H	0.900328	0.52279	0.678076
308	H	0.761176	0.383203	0.676712
309	C	0.56899	0.375206	0.677348
310	C	0.622994	0.402836	0.676776
311	C	0.650658	0.456839	0.676436
312	C	0.623399	0.483593	0.676582
313	C	0.569216	0.456686	0.677294
314	C	0.542271	0.402499	0.677702
315	H	0.643122	0.522794	0.676402
316	H	0.503076	0.382805	0.678137
317	H	0.642631	0.383168	0.676657
318	C	0.650651	0.198919	0.677311
319	C	0.623006	0.225275	0.676715
320	C	0.569004	0.198921	0.676406
321	C	0.542257	0.144909	0.676586
322	C	0.56918	0.117648	0.677311
323	C	0.62337	0.144907	0.677715
324	H	0.503059	0.125422	0.676412
325	H	0.643075	0.125415	0.678161
326	H	0.642665	0.264579	0.676579
327	C	0.990547	0.497898	0.718439
328	N	0.988413	0.496816	0.970994
329	C	0.962139	0.483685	0.010947
330	H	0.972874	0.489051	0.74946
331	C	0.527972	0.497883	0.718449
332	N	0.502004	0.523854	0.716241
333	C	0.488864	0.536973	0.009616
334	C	0.50308	0.522771	0.968793
335	N	0.529086	0.496839	0.971001
336	C	0.542217	0.483712	0.01096
337	H	0.536808	0.489055	0.74947
338	H	0.494253	0.53161	0.937772
339	C	0.527928	0.035197	0.718453
340	N	0.501912	0.983259	0.716235
341	C	0.488789	0.957009	0.009605
342	C	0.503045	0.985435	0.968786
343	N	0.529023	0.037374	0.971005
344	C	0.542158	0.063624	0.010969
345	H	0.536751	0.052855	0.749477
346	H	0.494213	0.967776	0.937762
347	C	0.486666	0.767729	0.969283
348	N	0.484183	0.721628	0.971678
349	C	0.4867	0.699188	0.677671
350	C	0.486461	0.723988	0.718392
351	N	0.483897	0.767557	0.715983
352	C	0.486621	0.792621	0.676678
353	H	0.481037	0.779842	0.938439
354	H	0.480631	0.706199	0.749229
355	C	0.729285	0.48139	0.968926
356	N	0.772893	0.4789	0.971396
357	C	0.797736	0.481536	0.677487
358	C	0.772755	0.481394	0.718198
359	N	0.726631	0.478866	0.715724
360	C	0.70443	0.481513	0.676297
361	H	0.71152	0.47568	0.938085
362	H	0.784716	0.475603	0.749052
363	C	0.54447	0.253153	0.968974
364	N	0.546928	0.299235	0.971416
365	C	0.544273	0.321433	0.677494
366	C	0.544387	0.296573	0.718177
367	N	0.546968	0.253016	0.715619
368	C	0.544364	0.228013	0.676266
369	H	0.550187	0.241149	0.938116
370	H	0.550192	0.314297	0.749048
371	C	0.772703	0.296595	0.969014
372	N	0.726625	0.252959	0.97142
373	C	0.704423	0.228007	0.677467
374	C	0.729267	0.25289	0.718198
375	N	0.772824	0.299043	0.715745
376	C	0.79775	0.321455	0.676392
377	H	0.784731	0.31439	0.938188
378	H	0.711528	0.24087	0.749048
