data_C288H216N144O72_2018-02-15_10:38:08
#******************************************
#
# CIF file created by Zeo++
# Zeo++ is an open source package to
# analyze microporous materials
#
#*******************************************

_cell_length_a		29.1132   
_cell_length_b		29.1132   
_cell_length_c		29.6854   
_cell_angle_alpha		90   
_cell_angle_beta		90   
_cell_angle_gamma		120   

_symmetry_space_group_name_H-M		'P1'
_symmetry_Int_Tables_number		1
_symmetry_cell_setting		Monoclinic

loop_
_symmetry_equiv_pos_as_xyz
'+x,+y,+z'

loop_
_atom_site_label
_atom_site_type_symbol
_atom_site_fract_x
_atom_site_fract_y
_atom_site_fract_z
1	C	0.03235	0.31017	0.337968
2	C	0.0639	0.285654	0.339089
3	N	0.037237	0.231675	0.006951
4	O	0.053138	0.363957	0.337503
5	C	0.054077	0.384619	0.293294
6	H	0.072044	0.427537	0.29598
7	H	0.014004	0.368709	0.279778
8	H	0.077869	0.376122	0.269899
9	C	0.03235	0.31017	0.671303
10	C	0.0639	0.285654	0.672422
11	N	0.037237	0.231675	0.340285
12	O	0.053138	0.363957	0.670838
13	C	0.054077	0.384619	0.626628
14	H	0.072044	0.427537	0.629313
15	H	0.014004	0.368709	0.613113
16	H	0.077869	0.376122	0.603233
17	C	0.03235	0.31017	0.004636
18	C	0.0639	0.285654	0.005755
19	N	0.037237	0.231675	0.673618
20	O	0.053138	0.363957	0.004171
21	C	0.054077	0.384619	0.95996
22	H	0.072044	0.427537	0.962645
23	H	0.014004	0.368709	0.946445
24	H	0.077869	0.376122	0.936565
25	C	0.032344	0.810172	0.337964
26	C	0.063894	0.785657	0.339089
27	N	0.03723	0.731676	0.00696
28	O	0.05313	0.863958	0.337489
29	C	0.05407	0.884607	0.293273
30	H	0.072037	0.927525	0.295949
31	H	0.013998	0.868694	0.279756
32	H	0.077861	0.876103	0.269883
33	C	0.032344	0.810172	0.6713
34	C	0.063894	0.785657	0.672422
35	N	0.03723	0.731676	0.340292
36	O	0.05313	0.863958	0.670822
37	C	0.05407	0.884607	0.626605
38	H	0.072037	0.927525	0.629283
39	H	0.013998	0.868694	0.613089
40	H	0.077861	0.876103	0.603216
41	C	0.032344	0.810172	0.004632
42	C	0.063894	0.785657	0.005756
43	N	0.03723	0.731676	0.673624
44	O	0.05313	0.863958	0.004154
45	C	0.05407	0.884607	0.95994
46	H	0.072037	0.927525	0.962615
47	H	0.013998	0.868694	0.946422
48	H	0.077861	0.876103	0.936548
49	C	0.119909	0.312882	0.005746
50	H	0.085693	0.147123	0.296058
51	C	0.119909	0.312882	0.339079
52	H	0.085693	0.147123	0.62939
53	C	0.119909	0.312882	0.672412
54	H	0.085693	0.147123	0.962723
55	C	0.119904	0.812885	0.005741
56	H	0.085695	0.647136	0.296007
57	C	0.119904	0.812885	0.339073
58	H	0.085695	0.647136	0.62934
59	C	0.119904	0.812885	0.672408
60	H	0.085695	0.647136	0.962672
61	N	0.149594	0.36675	0.005783
62	N	0.146502	0.285492	0.005784
63	O	0.149293	0.191828	0.337553
64	C	0.12861	0.172072	0.293354
65	H	0.144513	0.147896	0.279848
66	H	0.137095	0.20434	0.269944
67	H	0.14998	0.069414	0.050298
68	H	0.150837	0.011383	0.06641
69	N	0.149594	0.36675	0.339116
70	N	0.146502	0.285492	0.339116
71	O	0.149293	0.191828	0.670886
72	C	0.12861	0.172072	0.626689
73	H	0.144513	0.147896	0.61318
74	H	0.137095	0.20434	0.603277
75	H	0.14998	0.069414	0.38363
76	H	0.150837	0.011383	0.399742
77	N	0.149594	0.36675	0.672449
78	N	0.146502	0.285492	0.672452
79	O	0.149293	0.191828	0.004218
80	C	0.12861	0.172072	0.960021
81	H	0.144513	0.147896	0.946516
82	H	0.137095	0.20434	0.936609
83	H	0.14998	0.069414	0.716965
84	H	0.150837	0.011383	0.733078
85	N	0.149588	0.866751	0.005778
86	N	0.146496	0.785494	0.005772
87	O	0.149286	0.691827	0.337513
88	C	0.128612	0.672087	0.293311
89	H	0.144519	0.647917	0.279799
90	H	0.137102	0.704365	0.269909
91	H	0.14993	0.569401	0.050191
92	H	0.15077	0.511367	0.066324
93	N	0.149588	0.866751	0.33911
94	N	0.146496	0.785494	0.339106
95	O	0.149286	0.691827	0.670849
96	C	0.128612	0.672087	0.626645
97	H	0.144519	0.647917	0.613133
98	H	0.137102	0.704365	0.603243
99	H	0.14993	0.569401	0.383525
100	H	0.15077	0.511367	0.399658
101	N	0.149588	0.866751	0.672445
102	N	0.146496	0.785494	0.672439
103	O	0.149286	0.691827	0.004181
104	C	0.128612	0.672087	0.959977
105	H	0.144519	0.647917	0.946466
106	H	0.137102	0.704365	0.936575
107	H	0.14993	0.569401	0.716858
108	H	0.15077	0.511367	0.73299
109	C	0.203577	0.393342	0.005733
110	C	0.20037	0.309675	0.005738
111	N	0.22776	0.363658	0.005768
112	C	0.312326	0.117257	0.006802
113	N	0.366308	0.143847	0.006744
114	C	0.395995	0.197714	0.006783
115	N	0.369404	0.225106	0.006752
116	C	0.315537	0.200927	0.006806
117	N	0.288145	0.146944	0.006775
118	C	0.288311	0.22971	0.006788
119	N	0.234331	0.202394	0.338934
120	C	0.203082	0.224827	0.337995
121	C	0.227598	0.280893	0.339089
122	N	0.281578	0.308209	0.00694
123	C	0.312828	0.285777	0.007869
124	O	0.366616	0.318772	0.008339
125	C	0.387274	0.33851	0.052547
126	H	0.430193	0.363458	0.049862
127	H	0.378772	0.306233	0.075952
128	H	0.371367	0.362685	0.066048
129	C	0.283542	0.061247	0.006783
130	N	0.310854	0.034582	0.33883
131	C	0.28842	0.480903	0.33791
132	C	0.232356	0.449351	0.339076
133	N	0.20504	0.476012	0.007002
134	C	0.227478	0.029698	0.007959
135	O	0.194484	0.050491	0.008578
136	O	0.32142	0.460116	0.337355
137	C	0.174944	0.051451	0.052864
138	H	0.207327	0.075253	0.076173
139	C	0.341021	0.459152	0.293096
140	H	0.365985	0.441193	0.29571
141	H	0.365143	0.499219	0.279551
142	H	0.30867	0.435343	0.269762
143	C	0.452005	0.224941	0.006764
144	N	0.478668	0.27892	0.338901
145	C	0.483554	0.200424	0.007869
146	O	0.46276	0.146636	0.008361
147	C	0.461837	0.126002	0.05258
148	H	0.443867	0.083082	0.049913
149	H	0.43806	0.134518	0.075973
150	H	0.501917	0.141916	0.066086
151	C	0.203577	0.393342	0.339066
152	C	0.20037	0.309675	0.339073
153	N	0.22776	0.363658	0.339103
154	C	0.312326	0.117257	0.340134
155	N	0.366308	0.143847	0.340076
156	C	0.395995	0.197714	0.340117
157	N	0.369404	0.225106	0.340086
158	C	0.315537	0.200927	0.34014
159	N	0.288145	0.146944	0.340107
160	C	0.288311	0.22971	0.34012
161	N	0.234331	0.202394	0.67227
162	C	0.203082	0.224827	0.671327
163	C	0.227598	0.280893	0.672422
164	N	0.281578	0.308209	0.340272
165	C	0.312828	0.285777	0.341202
166	O	0.366616	0.318772	0.341673
167	C	0.387274	0.33851	0.38588
168	H	0.430193	0.363458	0.383195
169	H	0.378772	0.306233	0.409286
170	H	0.371367	0.362685	0.399382
171	C	0.283542	0.061247	0.340117
172	N	0.310854	0.034582	0.672162
173	C	0.28842	0.480903	0.671243
174	C	0.232356	0.449351	0.672408
175	N	0.20504	0.476012	0.340336
176	C	0.227478	0.029698	0.341292
177	O	0.194484	0.050491	0.341912
178	O	0.32142	0.460116	0.670687
179	C	0.174944	0.051451	0.386197
180	H	0.207327	0.075253	0.409508
181	C	0.341021	0.459152	0.626429
182	H	0.365985	0.441193	0.629043
183	H	0.365143	0.499219	0.612884
184	H	0.30867	0.435343	0.603095
185	C	0.452005	0.224941	0.340097
186	N	0.478668	0.27892	0.672233
187	C	0.483554	0.200424	0.341202
188	O	0.46276	0.146636	0.341693
189	C	0.461837	0.126002	0.385914
190	H	0.443867	0.083082	0.383246
191	H	0.43806	0.134518	0.409306
192	H	0.501917	0.141916	0.399419
193	C	0.203577	0.393342	0.672398
194	C	0.20037	0.309675	0.672405
195	N	0.22776	0.363658	0.672435
196	C	0.312326	0.117257	0.673469
197	N	0.366308	0.143847	0.673412
198	C	0.395995	0.197714	0.673449
199	N	0.369404	0.225106	0.673419
200	C	0.315537	0.200927	0.673473
201	N	0.288145	0.146944	0.673442
202	C	0.288311	0.22971	0.673456
203	N	0.234331	0.202394	0.005603
204	C	0.203082	0.224827	0.004663
205	C	0.227598	0.280893	0.005755
206	N	0.281578	0.308209	0.673607
207	C	0.312828	0.285777	0.674534
208	O	0.366616	0.318772	0.675005
209	C	0.387274	0.33851	0.719212
210	H	0.430193	0.363458	0.716528
211	H	0.378772	0.306233	0.742618
212	H	0.371367	0.362685	0.732714
213	C	0.283542	0.061247	0.673449
214	N	0.310854	0.034582	0.005497
215	C	0.28842	0.480903	0.004575
216	C	0.232356	0.449351	0.005743
217	N	0.20504	0.476012	0.673668
218	C	0.227478	0.029698	0.674625
219	O	0.194484	0.050491	0.675245
220	O	0.32142	0.460116	0.004023
221	C	0.174944	0.051451	0.719529
222	H	0.207327	0.075253	0.74284
223	C	0.341021	0.459152	0.959762
224	H	0.365985	0.441193	0.962376
225	H	0.365143	0.499219	0.946216
226	H	0.30867	0.435343	0.936427
227	C	0.452005	0.224941	0.673429
228	N	0.478668	0.27892	0.005567
229	C	0.483554	0.200424	0.674534
230	O	0.46276	0.146636	0.675029
231	C	0.461837	0.126002	0.719246
232	H	0.443867	0.083082	0.716581
233	H	0.43806	0.134518	0.742641
234	H	0.501917	0.141916	0.732751
235	C	0.203572	0.893344	0.005721
236	C	0.200362	0.809672	0.005719
237	N	0.227753	0.863657	0.005749
238	C	0.312321	0.617258	0.006798
239	N	0.366302	0.643848	0.006749
240	C	0.395989	0.697717	0.006785
241	N	0.369397	0.725108	0.006746
242	C	0.315529	0.700926	0.006792
243	N	0.288138	0.646941	0.006761
244	C	0.288303	0.729709	0.006768
245	N	0.234323	0.702393	0.338911
246	C	0.203074	0.724827	0.337968
247	C	0.22759	0.780893	0.339066
248	N	0.28157	0.808209	0.006923
249	C	0.31282	0.785776	0.007853
250	O	0.366608	0.818771	0.008333
251	C	0.387254	0.838499	0.052545
252	H	0.430173	0.863447	0.049869
253	H	0.378746	0.806218	0.075947
254	H	0.371345	0.862673	0.066046
255	C	0.283539	0.561247	0.006782
256	N	0.310855	0.534586	0.338857
257	C	0.288418	0.980903	0.33788
258	C	0.232353	0.949351	0.339066
259	N	0.205041	0.976016	0.007018
260	C	0.227474	0.529695	0.007936
261	O	0.194478	0.550486	0.008519
262	O	0.321414	0.960112	0.337287
263	C	0.174891	0.551438	0.052786
264	H	0.207249	0.575236	0.076117
265	C	0.340968	0.95914	0.293009
266	H	0.365934	0.941181	0.295594
267	H	0.365075	0.999203	0.279455
268	H	0.308592	0.935327	0.269697
269	C	0.451998	0.724942	0.006769
270	N	0.478662	0.778922	0.338897
271	C	0.483548	0.700426	0.007881
272	O	0.462756	0.64664	0.008385
273	C	0.461827	0.626016	0.052609
274	H	0.443855	0.583093	0.049951
275	H	0.438043	0.634535	0.075994
276	H	0.501902	0.641932	0.06612
277	C	0.203572	0.893344	0.339052
278	C	0.200362	0.809672	0.339052
279	N	0.227753	0.863657	0.339083
280	C	0.312321	0.617258	0.34013
281	N	0.366302	0.643848	0.340083
282	C	0.395989	0.697717	0.340117
283	N	0.369397	0.725108	0.34008
284	C	0.315529	0.700926	0.340124
285	N	0.288138	0.646941	0.340093
286	C	0.288303	0.729709	0.3401
287	N	0.234323	0.702393	0.672243
288	C	0.203074	0.724827	0.6713
289	C	0.22759	0.780893	0.672398
290	N	0.28157	0.808209	0.340255
291	C	0.31282	0.785776	0.341188
292	O	0.366608	0.818771	0.341666
293	C	0.387254	0.838499	0.38588
294	H	0.430173	0.863447	0.383202
295	H	0.378746	0.806218	0.409279
296	H	0.371345	0.862673	0.399378
297	C	0.283539	0.561247	0.340113
298	N	0.310855	0.534586	0.672189
299	C	0.288418	0.980903	0.671212
300	C	0.232353	0.949351	0.672398
301	N	0.205041	0.976016	0.340353
302	C	0.227474	0.529695	0.341269
303	O	0.194478	0.550486	0.341852
304	O	0.321414	0.960112	0.670619
305	C	0.174891	0.551438	0.386119
306	H	0.207249	0.575236	0.409451
307	C	0.340968	0.95914	0.626342
308	H	0.365934	0.941181	0.628926
309	H	0.365075	0.999203	0.61279
310	H	0.308592	0.935327	0.603031
311	C	0.451998	0.724942	0.340103
312	N	0.478662	0.778922	0.67223
313	C	0.483548	0.700426	0.341215
314	O	0.462756	0.64664	0.341717
315	C	0.461827	0.626016	0.385944
316	H	0.443855	0.583093	0.383283
317	H	0.438043	0.634535	0.409326
318	H	0.501902	0.641932	0.399452
319	C	0.203572	0.893344	0.672388
320	C	0.200362	0.809672	0.672385
321	N	0.227753	0.863657	0.672415
322	C	0.312321	0.617258	0.673463
323	N	0.366302	0.643848	0.673415
324	C	0.395989	0.697717	0.673452
325	N	0.369397	0.725108	0.673412
326	C	0.315529	0.700926	0.673459
327	N	0.288138	0.646941	0.673429
328	C	0.288303	0.729709	0.673436
329	N	0.234323	0.702393	0.005576
330	C	0.203074	0.724827	0.004632
331	C	0.22759	0.780893	0.005732
332	N	0.28157	0.808209	0.673591
333	C	0.31282	0.785776	0.67452
334	O	0.366608	0.818771	0.674999
335	C	0.387254	0.838499	0.719212
336	H	0.430173	0.863447	0.716534
337	H	0.378746	0.806218	0.742614
338	H	0.371345	0.862673	0.732714
339	C	0.283539	0.561247	0.673449
340	N	0.310855	0.534586	0.005522
341	C	0.288418	0.980903	0.004545
342	C	0.232353	0.949351	0.005733
343	N	0.205041	0.976016	0.673685
344	C	0.227474	0.529695	0.674601
345	O	0.194478	0.550486	0.675184
346	O	0.321414	0.960112	0.003952
347	C	0.174891	0.551438	0.719452
348	H	0.207249	0.575236	0.742783
349	C	0.340968	0.95914	0.959677
350	H	0.365934	0.941181	0.962261
351	H	0.365075	0.999203	0.946122
352	H	0.308592	0.935327	0.936363
353	C	0.451998	0.724942	0.673436
354	N	0.478662	0.778922	0.005565
355	C	0.483548	0.700426	0.674547
356	O	0.462756	0.64664	0.675053
357	C	0.461827	0.626016	0.719276
358	H	0.443855	0.583093	0.716619
359	H	0.438043	0.634535	0.742662
360	H	0.501902	0.641932	0.732788
361	C	0.703579	0.393342	0.005733
362	N	0.649596	0.36675	0.005783
363	C	0.619911	0.312882	0.005746
364	N	0.646504	0.285492	0.005784
365	C	0.70037	0.309675	0.005738
366	N	0.72776	0.363658	0.005768
367	C	0.812328	0.117257	0.006802
368	N	0.866309	0.143847	0.006744
369	C	0.895997	0.197714	0.006783
370	N	0.869406	0.225106	0.006752
371	C	0.815538	0.200927	0.006806
372	N	0.788144	0.146944	0.006775
373	C	0.788312	0.22971	0.006788
374	N	0.734333	0.202394	0.338934
375	C	0.703084	0.224827	0.337995
376	C	0.727599	0.280893	0.339089
377	N	0.78158	0.308209	0.00694
378	C	0.812829	0.285777	0.007869
379	O	0.866618	0.318772	0.008339
380	O	0.649295	0.191828	0.337553
381	C	0.887277	0.33851	0.052547
382	H	0.930193	0.363458	0.049862
383	H	0.878774	0.306233	0.075952
384	H	0.871366	0.362685	0.066048
385	C	0.628611	0.172072	0.293354
386	H	0.585693	0.147123	0.296058
387	H	0.644514	0.147896	0.279848
388	H	0.637096	0.20434	0.269944
389	C	0.783543	0.061247	0.006783
390	N	0.810856	0.034582	0.33883
391	C	0.788423	0.480903	0.33791
392	C	0.732356	0.449351	0.339076
393	N	0.705042	0.476012	0.007002
394	C	0.727478	0.029698	0.007959
395	O	0.694485	0.050491	0.008578
396	O	0.821422	0.460116	0.337355
397	C	0.674943	0.051451	0.052864
398	H	0.649981	0.069414	0.050298
399	H	0.707326	0.075253	0.076173
400	H	0.650839	0.011383	0.06641
401	C	0.84102	0.459152	0.293096
402	H	0.865984	0.441193	0.29571
403	H	0.865145	0.499219	0.279551
404	H	0.808671	0.435343	0.269762
405	C	0.952004	0.224941	0.006764
406	N	0.97867	0.27892	0.338901
407	C	0.53235	0.31017	0.337968
408	C	0.563901	0.285654	0.339089
409	N	0.537237	0.231675	0.006951
410	C	0.983557	0.200424	0.007869
411	O	0.962763	0.146636	0.008361
412	O	0.55314	0.363957	0.337503
413	C	0.961841	0.126002	0.05258
414	H	0.943867	0.083082	0.049913
415	H	0.93806	0.134518	0.075973
416	H	0.001917	0.141916	0.066086
417	C	0.554077	0.384619	0.293294
418	H	0.572046	0.427537	0.29598
419	H	0.514005	0.368709	0.279778
420	H	0.57787	0.376122	0.269899
421	C	0.703579	0.393342	0.339066
422	N	0.649596	0.36675	0.339116
423	C	0.619911	0.312882	0.339079
424	N	0.646504	0.285492	0.339116
425	C	0.70037	0.309675	0.339073
426	N	0.72776	0.363658	0.339103
427	C	0.812328	0.117257	0.340134
428	N	0.866309	0.143847	0.340076
429	C	0.895997	0.197714	0.340117
430	N	0.869406	0.225106	0.340086
431	C	0.815538	0.200927	0.34014
432	N	0.788144	0.146944	0.340107
433	C	0.788312	0.22971	0.34012
434	N	0.734333	0.202394	0.67227
435	C	0.703084	0.224827	0.671327
436	C	0.727599	0.280893	0.672422
437	N	0.78158	0.308209	0.340272
438	C	0.812829	0.285777	0.341202
439	O	0.866618	0.318772	0.341673
440	O	0.649295	0.191828	0.670886
441	C	0.887277	0.33851	0.38588
442	H	0.930193	0.363458	0.383195
443	H	0.878774	0.306233	0.409286
444	H	0.871366	0.362685	0.399382
445	C	0.628611	0.172072	0.626689
446	H	0.585693	0.147123	0.62939
447	H	0.644514	0.147896	0.61318
448	H	0.637096	0.20434	0.603277
449	C	0.783543	0.061247	0.340117
450	N	0.810856	0.034582	0.672162
451	C	0.788423	0.480903	0.671243
452	C	0.732356	0.449351	0.672408
453	N	0.705042	0.476012	0.340336
454	C	0.727478	0.029698	0.341292
455	O	0.694485	0.050491	0.341912
456	O	0.821422	0.460116	0.670687
457	C	0.674943	0.051451	0.386197
458	H	0.649981	0.069414	0.38363
459	H	0.707326	0.075253	0.409508
460	H	0.650839	0.011383	0.399742
461	C	0.84102	0.459152	0.626429
462	H	0.865984	0.441193	0.629043
463	H	0.865145	0.499219	0.612884
464	H	0.808671	0.435343	0.603095
465	C	0.952004	0.224941	0.340097
466	N	0.97867	0.27892	0.672233
467	C	0.53235	0.31017	0.671303
468	C	0.563901	0.285654	0.672422
469	N	0.537237	0.231675	0.340285
470	C	0.983557	0.200424	0.341202
471	O	0.962763	0.146636	0.341693
472	O	0.55314	0.363957	0.670838
473	C	0.961841	0.126002	0.385914
474	H	0.943867	0.083082	0.383246
475	H	0.93806	0.134518	0.409306
476	H	0.001917	0.141916	0.399419
477	C	0.554077	0.384619	0.626628
478	H	0.572046	0.427537	0.629313
479	H	0.514005	0.368709	0.613113
480	H	0.57787	0.376122	0.603233
481	C	0.703579	0.393342	0.672398
482	N	0.649596	0.36675	0.672449
483	C	0.619911	0.312882	0.672412
484	N	0.646504	0.285492	0.672452
485	C	0.70037	0.309675	0.672405
486	N	0.72776	0.363658	0.672435
487	C	0.812328	0.117257	0.673469
488	N	0.866309	0.143847	0.673412
489	C	0.895997	0.197714	0.673449
490	N	0.869406	0.225106	0.673419
491	C	0.815538	0.200927	0.673473
492	N	0.788144	0.146944	0.673442
493	C	0.788312	0.22971	0.673456
494	N	0.734333	0.202394	0.005603
495	C	0.703084	0.224827	0.004663
496	C	0.727599	0.280893	0.005755
497	N	0.78158	0.308209	0.673607
498	C	0.812829	0.285777	0.674534
499	O	0.866618	0.318772	0.675005
500	O	0.649295	0.191828	0.004218
501	C	0.887277	0.33851	0.719212
502	H	0.930193	0.363458	0.716528
503	H	0.878774	0.306233	0.742618
504	H	0.871366	0.362685	0.732714
505	C	0.628611	0.172072	0.960021
506	H	0.585693	0.147123	0.962723
507	H	0.644514	0.147896	0.946516
508	H	0.637096	0.20434	0.936609
509	C	0.783543	0.061247	0.673449
510	N	0.810856	0.034582	0.005497
511	C	0.788423	0.480903	0.004575
512	C	0.732356	0.449351	0.005743
513	N	0.705042	0.476012	0.673668
514	C	0.727478	0.029698	0.674625
515	O	0.694485	0.050491	0.675245
516	O	0.821422	0.460116	0.004023
517	C	0.674943	0.051451	0.719529
518	H	0.649981	0.069414	0.716965
519	H	0.707326	0.075253	0.74284
520	H	0.650839	0.011383	0.733078
521	C	0.84102	0.459152	0.959762
522	H	0.865984	0.441193	0.962376
523	H	0.865145	0.499219	0.946216
524	H	0.808671	0.435343	0.936427
525	C	0.952004	0.224941	0.673429
526	N	0.97867	0.27892	0.005567
527	C	0.53235	0.31017	0.004636
528	C	0.563901	0.285654	0.005755
529	N	0.537237	0.231675	0.673618
530	C	0.983557	0.200424	0.674534
531	O	0.962763	0.146636	0.675029
532	O	0.55314	0.363957	0.004171
533	C	0.961841	0.126002	0.719246
534	H	0.943867	0.083082	0.716581
535	H	0.93806	0.134518	0.742641
536	H	0.001917	0.141916	0.732751
537	C	0.554077	0.384619	0.95996
538	H	0.572046	0.427537	0.962645
539	H	0.514005	0.368709	0.946445
540	H	0.57787	0.376122	0.936565
541	C	0.703572	0.893344	0.005721
542	N	0.649589	0.866751	0.005778
543	C	0.619904	0.812885	0.005741
544	N	0.646497	0.785494	0.005772
545	C	0.700362	0.809672	0.005719
546	N	0.727754	0.863657	0.005749
547	C	0.812322	0.617258	0.006798
548	N	0.866302	0.643848	0.006749
549	C	0.895988	0.697717	0.006785
550	N	0.8694	0.725108	0.006746
551	C	0.81553	0.700926	0.006792
552	N	0.78814	0.646941	0.006761
553	C	0.788305	0.729709	0.006768
554	N	0.734325	0.702393	0.338911
555	C	0.703075	0.724827	0.337968
556	C	0.727591	0.780893	0.339066
557	N	0.781572	0.808209	0.006923
558	C	0.812821	0.785776	0.007853
559	O	0.866608	0.818771	0.008333
560	O	0.649286	0.691827	0.337513
561	C	0.887254	0.838499	0.052545
562	H	0.930174	0.863447	0.049869
563	H	0.878745	0.806218	0.075947
564	H	0.871347	0.862673	0.066046
565	C	0.628612	0.672087	0.293311
566	H	0.585695	0.647136	0.296007
567	H	0.64452	0.647917	0.279799
568	H	0.637103	0.704365	0.269909
569	C	0.78354	0.561247	0.006782
570	N	0.810854	0.534586	0.338857
571	C	0.788418	0.980903	0.33788
572	C	0.732353	0.949351	0.339066
573	N	0.705041	0.976016	0.007018
574	C	0.727473	0.529695	0.007936
575	O	0.694479	0.550486	0.008519
576	O	0.821414	0.960112	0.337287
577	C	0.674892	0.551438	0.052786
578	H	0.64993	0.569401	0.050191
579	H	0.707249	0.575236	0.076117
580	H	0.650769	0.511367	0.066324
581	C	0.84097	0.95914	0.293009
582	H	0.865934	0.941181	0.295594
583	H	0.865075	0.999203	0.279455
584	H	0.808593	0.935327	0.269697
585	C	0.951997	0.724942	0.006769
586	N	0.978661	0.778922	0.338897
587	C	0.532344	0.810172	0.337964
588	C	0.563895	0.785657	0.339089
589	N	0.537231	0.731676	0.00696
590	C	0.983548	0.700426	0.007881
591	O	0.962758	0.64664	0.008385
592	O	0.553133	0.863958	0.337489
593	C	0.961827	0.626016	0.052609
594	H	0.943855	0.583093	0.049951
595	H	0.938044	0.634535	0.075994
596	H	0.001901	0.641932	0.06612
597	C	0.55407	0.884607	0.293273
598	H	0.572037	0.927525	0.295949
599	H	0.513998	0.868694	0.279756
600	H	0.577862	0.876103	0.269883
601	C	0.703572	0.893344	0.339052
602	N	0.649589	0.866751	0.33911
603	C	0.619904	0.812885	0.339073
604	N	0.646497	0.785494	0.339106
605	C	0.700362	0.809672	0.339052
606	N	0.727754	0.863657	0.339083
607	C	0.812322	0.617258	0.34013
608	N	0.866302	0.643848	0.340083
609	C	0.895988	0.697717	0.340117
610	N	0.8694	0.725108	0.34008
611	C	0.81553	0.700926	0.340124
612	N	0.78814	0.646941	0.340093
613	C	0.788305	0.729709	0.3401
614	N	0.734325	0.702393	0.672243
615	C	0.703075	0.724827	0.6713
616	C	0.727591	0.780893	0.672398
617	N	0.781572	0.808209	0.340255
618	C	0.812821	0.785776	0.341188
619	O	0.866608	0.818771	0.341666
620	O	0.649286	0.691827	0.670849
621	C	0.887254	0.838499	0.38588
622	H	0.930174	0.863447	0.383202
623	H	0.878745	0.806218	0.409279
624	H	0.871347	0.862673	0.399378
625	C	0.628612	0.672087	0.626645
626	H	0.585695	0.647136	0.62934
627	H	0.64452	0.647917	0.613133
628	H	0.637103	0.704365	0.603243
629	C	0.78354	0.561247	0.340113
630	N	0.810854	0.534586	0.672189
631	C	0.788418	0.980903	0.671212
632	C	0.732353	0.949351	0.672398
633	N	0.705041	0.976016	0.340353
634	C	0.727473	0.529695	0.341269
635	O	0.694479	0.550486	0.341852
636	O	0.821414	0.960112	0.670619
637	C	0.674892	0.551438	0.386119
638	H	0.64993	0.569401	0.383525
639	H	0.707249	0.575236	0.409451
640	H	0.650769	0.511367	0.399658
641	C	0.84097	0.95914	0.626342
642	H	0.865934	0.941181	0.628926
643	H	0.865075	0.999203	0.61279
644	H	0.808593	0.935327	0.603031
645	C	0.951997	0.724942	0.340103
646	N	0.978661	0.778922	0.67223
647	C	0.532344	0.810172	0.6713
648	C	0.563895	0.785657	0.672422
649	N	0.537231	0.731676	0.340292
650	C	0.983548	0.700426	0.341215
651	O	0.962758	0.64664	0.341717
652	O	0.553133	0.863958	0.670822
653	C	0.961827	0.626016	0.385944
654	H	0.943855	0.583093	0.383283
655	H	0.938044	0.634535	0.409326
656	H	0.001901	0.641932	0.399452
657	C	0.55407	0.884607	0.626605
658	H	0.572037	0.927525	0.629283
659	H	0.513998	0.868694	0.613089
660	H	0.577862	0.876103	0.603216
661	C	0.703572	0.893344	0.672388
662	N	0.649589	0.866751	0.672445
663	C	0.619904	0.812885	0.672408
664	N	0.646497	0.785494	0.672439
665	C	0.700362	0.809672	0.672385
666	N	0.727754	0.863657	0.672415
667	C	0.812322	0.617258	0.673463
668	N	0.866302	0.643848	0.673415
669	C	0.895988	0.697717	0.673452
670	N	0.8694	0.725108	0.673412
671	C	0.81553	0.700926	0.673459
672	N	0.78814	0.646941	0.673429
673	C	0.788305	0.729709	0.673436
674	N	0.734325	0.702393	0.005576
675	C	0.703075	0.724827	0.004632
676	C	0.727591	0.780893	0.005732
677	N	0.781572	0.808209	0.673591
678	C	0.812821	0.785776	0.67452
679	O	0.866608	0.818771	0.674999
680	O	0.649286	0.691827	0.004181
681	C	0.887254	0.838499	0.719212
682	H	0.930174	0.863447	0.716534
683	H	0.878745	0.806218	0.742614
684	H	0.871347	0.862673	0.732714
685	C	0.628612	0.672087	0.959977
686	H	0.585695	0.647136	0.962672
687	H	0.64452	0.647917	0.946466
688	H	0.637103	0.704365	0.936575
689	C	0.78354	0.561247	0.673449
690	N	0.810854	0.534586	0.005522
691	C	0.788418	0.980903	0.004545
692	C	0.732353	0.949351	0.005733
693	N	0.705041	0.976016	0.673685
694	C	0.727473	0.529695	0.674601
695	O	0.694479	0.550486	0.675184
696	O	0.821414	0.960112	0.003952
697	C	0.674892	0.551438	0.719452
698	H	0.64993	0.569401	0.716858
699	H	0.707249	0.575236	0.742783
700	H	0.650769	0.511367	0.73299
701	C	0.84097	0.95914	0.959677
702	H	0.865934	0.941181	0.962261
703	H	0.865075	0.999203	0.946122
704	H	0.808593	0.935327	0.936363
705	C	0.951997	0.724942	0.673436
706	N	0.978661	0.778922	0.005565
707	C	0.532344	0.810172	0.004632
708	C	0.563895	0.785657	0.005756
709	N	0.537231	0.731676	0.673624
710	C	0.983548	0.700426	0.674547
711	O	0.962758	0.64664	0.675053
712	O	0.553133	0.863958	0.004154
713	C	0.961827	0.626016	0.719276
714	H	0.943855	0.583093	0.716619
715	H	0.938044	0.634535	0.742662
716	H	0.001901	0.641932	0.732788
717	C	0.55407	0.884607	0.95994
718	H	0.572037	0.927525	0.962615
719	H	0.513998	0.868694	0.946422
720	H	0.577862	0.876103	0.936548
