data_C162H54N108_2018-02-15_10:37:41
#******************************************
#
# CIF file created by Zeo++
# Zeo++ is an open source package to
# analyze microporous materials
#
#*******************************************

_cell_length_a		29.8287   
_cell_length_b		29.8287   
_cell_length_c		29.3856   
_cell_angle_alpha		90   
_cell_angle_beta		90   
_cell_angle_gamma		120   

_symmetry_space_group_name_H-M		'P1'
_symmetry_Int_Tables_number		1
_symmetry_cell_setting		Monoclinic

loop_
_symmetry_equiv_pos_as_xyz
'+x,+y,+z'

loop_
_atom_site_label
_atom_site_type_symbol
_atom_site_fract_x
_atom_site_fract_y
_atom_site_fract_z
1	C	0.203233	0.643886	0.010034
2	N	0.15059	0.617403	0.009602
3	C	0.124073	0.564605	0.010055
4	N	0.150592	0.538328	0.01082
5	C	0.203236	0.564497	0.011089
6	N	0.228708	0.616931	0.010742
7	N	0.043075	0.524056	0.049698
8	C	0.069664	0.537399	0.343076
9	C	0.040874	0.523092	0.302268
10	H	0.058731	0.532053	0.271222
11	C	0.203233	0.643886	0.343365
12	N	0.15059	0.617403	0.342936
13	C	0.124073	0.564605	0.343385
14	N	0.150592	0.538328	0.344155
15	C	0.203236	0.564497	0.344423
16	N	0.228708	0.616931	0.344076
17	N	0.043075	0.524056	0.383031
18	C	0.069664	0.537399	0.676409
19	C	0.040874	0.523092	0.635603
20	H	0.058731	0.532053	0.604557
21	C	0.203233	0.643886	0.676701
22	N	0.15059	0.617403	0.676269
23	C	0.124073	0.564605	0.676722
24	N	0.150592	0.538328	0.677487
25	C	0.203236	0.564497	0.677756
26	N	0.228708	0.616931	0.677409
27	N	0.043075	0.524056	0.716367
28	C	0.069664	0.537399	0.009742
29	C	0.040874	0.523092	0.968936
30	H	0.058731	0.532053	0.93789
31	N	0.258925	0.544081	0.305405
32	C	0.233568	0.540763	0.011569
33	C	0.259384	0.541464	0.052079
34	H	0.247328	0.547332	0.082951
35	C	0.259409	0.723247	0.302667
36	N	0.258996	0.720007	0.049238
37	C	0.233557	0.697934	0.009789
38	H	0.247537	0.705467	0.271719
39	N	0.258925	0.544081	0.638741
40	C	0.233568	0.540763	0.344903
41	C	0.259384	0.541464	0.385413
42	H	0.247328	0.547332	0.416285
43	C	0.259409	0.723247	0.636001
44	N	0.258996	0.720007	0.382571
45	C	0.233557	0.697934	0.343123
46	H	0.247537	0.705467	0.605054
47	N	0.258925	0.544081	0.972074
48	C	0.233568	0.540763	0.678236
49	C	0.259384	0.541464	0.718746
50	H	0.247328	0.547332	0.749618
51	C	0.259409	0.723247	0.969334
52	N	0.258996	0.720007	0.715908
53	C	0.233557	0.697934	0.676456
54	H	0.247537	0.705467	0.938387
55	C	0.303187	0.54177	0.302669
56	N	0.305982	0.543833	0.049425
57	H	0.321136	0.547905	0.271778
58	N	0.305974	0.767525	0.305396
59	C	0.303191	0.766596	0.052041
60	H	0.321206	0.77843	0.082899
61	C	0.303187	0.54177	0.636005
62	N	0.305982	0.543833	0.382758
63	H	0.321136	0.547905	0.605112
64	N	0.305974	0.767525	0.63873
65	C	0.303191	0.766596	0.385375
66	H	0.321206	0.77843	0.416234
67	C	0.303187	0.54177	0.969338
68	N	0.305982	0.543833	0.716091
69	H	0.321136	0.547905	0.938445
70	N	0.305974	0.767525	0.972063
71	C	0.303191	0.766596	0.718708
72	H	0.321206	0.77843	0.749567
73	C	0.382189	0.564574	0.009983
74	N	0.408645	0.538386	0.009691
75	C	0.461446	0.564636	0.010092
76	N	0.487751	0.617434	0.010761
77	C	0.461611	0.64394	0.010921
78	N	0.409176	0.617009	0.010603
79	C	0.461582	0.822913	0.010147
80	N	0.487773	0.87556	0.009701
81	C	0.461512	0.9021	0.009987
82	N	0.408716	0.87561	0.010668
83	C	0.382217	0.822967	0.011013
84	N	0.409154	0.797468	0.010833
85	C	0.828114	0.377002	0.009905
86	N	0.880756	0.403463	0.010235
87	C	0.907282	0.456261	0.010812
88	N	0.880776	0.482553	0.01113
89	C	0.828132	0.456404	0.010721
90	N	0.802651	0.403974	0.010167
91	C	0.649134	0.456365	0.009762
92	N	0.622656	0.482534	0.010096
93	C	0.56986	0.456249	0.010875
94	N	0.543586	0.403447	0.011332
95	C	0.569753	0.37697	0.010838
96	N	0.622179	0.403931	0.010106
97	C	0.569775	0.198066	0.009674
98	N	0.543584	0.145423	0.010187
99	C	0.56984	0.118885	0.010934
100	N	0.622642	0.145383	0.011276
101	C	0.649146	0.198022	0.010629
102	N	0.62221	0.223516	0.009902
103	C	0.990481	0.497798	0.051922
104	N	0.988283	0.496787	0.304492
105	C	0.961691	0.483451	0.344451
106	H	0.972626	0.488828	0.082968
107	C	0.528187	0.497786	0.051979
108	N	0.501909	0.524102	0.049752
109	C	0.488633	0.537415	0.343127
110	C	0.503054	0.523037	0.302323
111	N	0.529387	0.496776	0.304552
112	C	0.542647	0.483448	0.344512
113	H	0.5371	0.488848	0.083027
114	H	0.494161	0.531995	0.271275
115	C	0.52828	0.035638	0.051983
116	N	0.501994	0.983049	0.049704
117	C	0.488722	0.956509	0.343055
118	C	0.503105	0.985349	0.302277
119	N	0.529347	0.037938	0.304556
120	C	0.542631	0.064479	0.344539
121	H	0.537199	0.053454	0.083046
122	H	0.494177	0.967534	0.271213
123	C	0.328101	0.540852	0.009912
124	C	0.484262	0.766689	0.302802
125	N	0.481953	0.720112	0.30539
126	C	0.485386	0.698008	0.011462
127	C	0.484825	0.723077	0.052042
128	N	0.48241	0.767285	0.049489
129	C	0.485278	0.79254	0.010092
130	H	0.478078	0.778542	0.271948
131	H	0.479017	0.705107	0.082886
132	C	0.328148	0.792676	0.011591
133	C	0.728281	0.479185	0.302229
134	N	0.772554	0.476894	0.304882
135	C	0.797806	0.480169	0.01105
136	C	0.772059	0.479437	0.051597
137	N	0.725452	0.477041	0.048839
138	C	0.703184	0.480084	0.009374
139	H	0.710361	0.473088	0.271333
140	H	0.784058	0.473491	0.08247
141	C	0.547497	0.254548	0.30224
142	N	0.54981	0.301106	0.305015
143	C	0.546025	0.322903	0.011141
144	C	0.546191	0.297516	0.051659
145	N	0.54855	0.253268	0.049011
146	C	0.546042	0.228426	0.009449
147	H	0.553954	0.242908	0.271393
148	H	0.551732	0.31527	0.082581
149	C	0.771649	0.298374	0.302393
150	N	0.725086	0.254122	0.30499
151	C	0.703213	0.228324	0.011006
152	C	0.728538	0.253644	0.051611
153	N	0.772758	0.300286	0.049097
154	C	0.797765	0.32293	0.009667
155	H	0.783334	0.316588	0.271597
156	H	0.710731	0.241295	0.082496
157	C	0.382189	0.564574	0.343314
158	N	0.408645	0.538386	0.343021
159	C	0.461446	0.564636	0.343426
160	N	0.487751	0.617434	0.344097
161	C	0.461611	0.64394	0.344253
162	N	0.409176	0.617009	0.343937
163	C	0.461582	0.822913	0.343477
164	N	0.487773	0.87556	0.343032
165	C	0.461512	0.9021	0.343321
166	N	0.408716	0.87561	0.344001
167	C	0.382217	0.822967	0.344345
168	N	0.409154	0.797468	0.344168
169	C	0.828114	0.377002	0.343239
170	N	0.880756	0.403463	0.343566
171	C	0.907282	0.456261	0.344144
172	N	0.880776	0.482553	0.344464
173	C	0.828132	0.456404	0.344056
174	N	0.802651	0.403974	0.343501
175	C	0.649134	0.456365	0.343096
176	N	0.622656	0.482534	0.34343
177	C	0.56986	0.456249	0.344209
178	N	0.543586	0.403447	0.344665
179	C	0.569753	0.37697	0.344172
180	N	0.622179	0.403931	0.34344
181	C	0.569775	0.198066	0.343004
182	N	0.543584	0.145423	0.343518
183	C	0.56984	0.118885	0.344267
184	N	0.622642	0.145383	0.344611
185	C	0.649146	0.198022	0.343964
186	N	0.62221	0.223516	0.343232
187	C	0.990481	0.497798	0.385256
188	N	0.988283	0.496787	0.637825
189	C	0.961691	0.483451	0.677784
190	H	0.972626	0.488828	0.416302
191	C	0.528187	0.497786	0.385314
192	N	0.501909	0.524102	0.383085
193	C	0.488633	0.537415	0.67646
194	C	0.503054	0.523037	0.635658
195	N	0.529387	0.496776	0.637886
196	C	0.542647	0.483448	0.677845
197	H	0.5371	0.488848	0.41636
198	H	0.494161	0.531995	0.604608
199	C	0.52828	0.035638	0.385318
200	N	0.501994	0.983049	0.383037
201	C	0.488722	0.956509	0.676388
202	C	0.503105	0.985349	0.63561
203	N	0.529347	0.037938	0.63789
204	C	0.542631	0.064479	0.677875
205	H	0.537199	0.053454	0.41638
206	H	0.494177	0.967534	0.604547
207	C	0.328101	0.540852	0.343243
208	C	0.484262	0.766689	0.636134
209	N	0.481953	0.720112	0.638724
210	C	0.485386	0.698008	0.344794
211	C	0.484825	0.723077	0.385375
212	N	0.48241	0.767285	0.382823
213	C	0.485278	0.79254	0.343426
214	H	0.478078	0.778542	0.605282
215	H	0.479017	0.705107	0.41622
216	C	0.328148	0.792676	0.344924
217	C	0.728281	0.479185	0.635562
218	N	0.772554	0.476894	0.638217
219	C	0.797806	0.480169	0.344383
220	C	0.772059	0.479437	0.38493
221	N	0.725452	0.477041	0.382173
222	C	0.703184	0.480084	0.342705
223	H	0.710361	0.473088	0.604666
224	H	0.784058	0.473491	0.415802
225	C	0.547497	0.254548	0.635572
226	N	0.54981	0.301106	0.638349
227	C	0.546025	0.322903	0.344474
228	C	0.546191	0.297516	0.384994
229	N	0.54855	0.253268	0.382343
230	C	0.546042	0.228426	0.34278
231	H	0.553954	0.242908	0.604727
232	H	0.551732	0.31527	0.415914
233	C	0.771649	0.298374	0.635726
234	N	0.725086	0.254122	0.638322
235	C	0.703213	0.228324	0.344338
236	C	0.728538	0.253644	0.384947
237	N	0.772758	0.300286	0.382432
238	C	0.797765	0.32293	0.343001
239	H	0.783334	0.316588	0.604932
240	H	0.710731	0.241295	0.415829
241	C	0.382189	0.564574	0.67665
242	N	0.408645	0.538386	0.676354
243	C	0.461446	0.564636	0.676759
244	N	0.487751	0.617434	0.67743
245	C	0.461611	0.64394	0.67759
246	N	0.409176	0.617009	0.67727
247	C	0.461582	0.822913	0.676814
248	N	0.487773	0.87556	0.676364
249	C	0.461512	0.9021	0.676654
250	N	0.408716	0.87561	0.677334
251	C	0.382217	0.822967	0.677681
252	N	0.409154	0.797468	0.677501
253	C	0.828114	0.377002	0.676572
254	N	0.880756	0.403463	0.676899
255	C	0.907282	0.456261	0.677481
256	N	0.880776	0.482553	0.677797
257	C	0.828132	0.456404	0.677389
258	N	0.802651	0.403974	0.676834
259	C	0.649134	0.456365	0.676429
260	N	0.622656	0.482534	0.676763
261	C	0.56986	0.456249	0.677542
262	N	0.543586	0.403447	0.678001
263	C	0.569753	0.37697	0.677504
264	N	0.622179	0.403931	0.676773
265	C	0.569775	0.198066	0.676341
266	N	0.543584	0.145423	0.676855
267	C	0.56984	0.118885	0.6776
268	N	0.622642	0.145383	0.677943
269	C	0.649146	0.198022	0.677297
270	N	0.62221	0.223516	0.676565
271	C	0.990481	0.497798	0.718589
272	N	0.988283	0.496787	0.971158
273	C	0.961691	0.483451	0.011116
274	H	0.972626	0.488828	0.749635
275	C	0.528187	0.497786	0.718647
276	N	0.501909	0.524102	0.716418
277	C	0.488633	0.537415	0.009796
278	C	0.503054	0.523037	0.96899
279	N	0.529387	0.496776	0.971219
280	C	0.542647	0.483448	0.011177
281	H	0.5371	0.488848	0.749693
282	H	0.494161	0.531995	0.937941
283	C	0.52828	0.035638	0.71865
284	N	0.501994	0.983049	0.71637
285	C	0.488722	0.956509	0.009721
286	C	0.503105	0.985349	0.968943
287	N	0.529347	0.037938	0.971223
288	C	0.542631	0.064479	0.011207
289	H	0.537199	0.053454	0.749713
290	H	0.494177	0.967534	0.93788
291	C	0.328101	0.540852	0.676579
292	C	0.484262	0.766689	0.96947
293	N	0.481953	0.720112	0.972057
294	C	0.485386	0.698008	0.678131
295	C	0.484825	0.723077	0.718708
296	N	0.48241	0.767285	0.716156
297	C	0.485278	0.79254	0.676759
298	H	0.478078	0.778542	0.938615
299	H	0.479017	0.705107	0.749553
300	C	0.328148	0.792676	0.678257
301	C	0.728281	0.479185	0.968895
302	N	0.772554	0.476894	0.97155
303	C	0.797806	0.480169	0.677719
304	C	0.772059	0.479437	0.718266
305	N	0.725452	0.477041	0.715506
306	C	0.703184	0.480084	0.676041
307	H	0.710361	0.473088	0.937999
308	H	0.784058	0.473491	0.749138
309	C	0.547497	0.254548	0.968909
310	N	0.54981	0.301106	0.971682
311	C	0.546025	0.322903	0.677807
312	C	0.546191	0.297516	0.718327
313	N	0.54855	0.253268	0.71568
314	C	0.546042	0.228426	0.676116
315	H	0.553954	0.242908	0.93806
316	H	0.551732	0.31527	0.749247
317	C	0.771649	0.298374	0.969062
318	N	0.725086	0.254122	0.971658
319	C	0.703213	0.228324	0.677675
320	C	0.728538	0.253644	0.71828
321	N	0.772758	0.300286	0.715765
322	C	0.797765	0.32293	0.676334
323	H	0.783334	0.316588	0.938265
324	H	0.710731	0.241295	0.749165
