data_C243H108N54O54_2018-02-15_10:40:07
#******************************************
#
# CIF file created by Zeo++
# Zeo++ is an open source package to
# analyze microporous materials
#
#*******************************************

_cell_length_a		30.2511   
_cell_length_b		30.251   
_cell_length_c		29.42   
_cell_angle_alpha		90   
_cell_angle_beta		90   
_cell_angle_gamma		120   

_symmetry_space_group_name_H-M		'P1'
_symmetry_Int_Tables_number		1
_symmetry_cell_setting		Monoclinic

loop_
_symmetry_equiv_pos_as_xyz
'+x,+y,+z'

loop_
_atom_site_label
_atom_site_type_symbol
_atom_site_fract_x
_atom_site_fract_y
_atom_site_fract_z
1	C	0.069426	0.536836	0.320177
2	N	0.043213	0.491325	0.009141
3	C	0.038251	0.552841	0.297188
4	C	0.057556	0.596153	0.270193
5	O	0.036333	0.621529	0.271338
6	O	0.081688	0.600566	0.23497
7	H	0.095512	0.581671	0.22781
8	C	0.069426	0.536836	0.653509
9	N	0.043213	0.491325	0.342478
10	C	0.038251	0.552841	0.630521
11	C	0.057556	0.596153	0.603526
12	O	0.036333	0.621529	0.604671
13	O	0.081688	0.600566	0.568305
14	H	0.095512	0.581671	0.561143
15	C	0.069426	0.536836	0.986844
16	N	0.043213	0.491325	0.67581
17	C	0.038251	0.552841	0.963856
18	C	0.057556	0.596153	0.936857
19	O	0.036333	0.621529	0.938003
20	O	0.081688	0.600566	0.901636
21	H	0.095512	0.581671	0.894474
22	C	0.202561	0.563033	0.01591
23	C	0.203102	0.645531	0.014377
24	C	0.152175	0.619312	0.998241
25	C	0.124443	0.565136	0.992738
26	C	0.151971	0.538561	0.998951
27	H	0.133865	0.639805	0.995324
28	H	0.133675	0.499826	0.994542
29	O	0.212403	0.551039	0.120559
30	H	0.18472	0.52277	0.111747
31	C	0.202561	0.563033	0.349242
32	C	0.203102	0.645531	0.347709
33	C	0.152175	0.619312	0.331575
34	C	0.124443	0.565136	0.326072
35	C	0.151971	0.538561	0.332287
36	H	0.133865	0.639805	0.328657
37	H	0.133675	0.499826	0.327875
38	O	0.212403	0.551039	0.453892
39	H	0.18472	0.52277	0.445079
40	C	0.202561	0.563033	0.682577
41	C	0.203102	0.645531	0.681044
42	C	0.152175	0.619312	0.664906
43	C	0.124443	0.565136	0.659406
44	C	0.151971	0.538561	0.665619
45	H	0.133865	0.639805	0.661989
46	H	0.133675	0.499826	0.661208
47	O	0.212403	0.551039	0.787224
48	H	0.18472	0.52277	0.778414
49	C	0.226408	0.616109	0.023812
50	H	0.264258	0.634992	0.032783
51	C	0.232065	0.538993	0.023553
52	N	0.247306	0.523621	0.319218
53	C	0.290404	0.519751	0.316613
54	N	0.309776	0.553383	0.057187
55	C	0.264233	0.551211	0.062428
56	H	0.30104	0.512834	0.285649
57	C	0.25538	0.567174	0.104134
58	O	0.289419	0.606505	0.120941
59	N	0.295658	0.77775	0.320745
60	C	0.248537	0.734778	0.318369
61	C	0.233381	0.699088	0.020981
62	N	0.263743	0.714887	0.058424
63	C	0.307141	0.760428	0.06366
64	H	0.230977	0.724369	0.287404
65	C	0.226408	0.616109	0.357145
66	H	0.264258	0.634992	0.366115
67	C	0.232065	0.538993	0.356887
68	N	0.247306	0.523621	0.65255
69	C	0.290404	0.519751	0.649946
70	N	0.309776	0.553383	0.390521
71	C	0.264233	0.551211	0.395762
72	H	0.30104	0.512834	0.618981
73	C	0.25538	0.567174	0.437468
74	O	0.289419	0.606505	0.454273
75	N	0.295658	0.77775	0.654076
76	C	0.248537	0.734778	0.6517
77	C	0.233381	0.699088	0.354314
78	N	0.263743	0.714887	0.391758
79	C	0.307141	0.760428	0.396992
80	H	0.230977	0.724369	0.620738
81	C	0.226408	0.616109	0.690477
82	H	0.264258	0.634992	0.69945
83	C	0.232065	0.538993	0.690218
84	N	0.247306	0.523621	0.985885
85	C	0.290404	0.519751	0.983278
86	N	0.309776	0.553383	0.723852
87	C	0.264233	0.551211	0.729093
88	H	0.30104	0.512834	0.952316
89	C	0.25538	0.567174	0.7708
90	O	0.289419	0.606505	0.787608
91	N	0.295658	0.77775	0.987411
92	C	0.248537	0.734778	0.985035
93	C	0.233381	0.699088	0.687645
94	N	0.263743	0.714887	0.725089
95	C	0.307141	0.760428	0.730324
96	H	0.230977	0.724369	0.95407
97	C	0.46187	0.644664	0.015178
98	C	0.408691	0.61546	0.022576
99	C	0.379349	0.562788	0.012943
100	C	0.405636	0.5381	0.996952
101	C	0.459869	0.564521	0.991905
102	C	0.48647	0.618579	0.998455
103	H	0.385173	0.499291	0.994094
104	H	0.525271	0.638973	0.994508
105	H	0.389761	0.634377	0.03159
106	C	0.380139	0.822158	0.016671
107	C	0.40949	0.798397	0.02439
108	C	0.462045	0.821536	0.014243
109	C	0.486555	0.872307	0.997714
110	C	0.460087	0.900076	0.992676
111	C	0.406067	0.872627	0.99943
112	H	0.525323	0.890606	0.994468
113	H	0.385611	0.890938	0.995249
114	H	0.39061	0.760585	0.033484
115	C	0.828402	0.454991	0.015168
116	C	0.80319	0.401704	0.022576
117	C	0.825316	0.371222	0.012975
118	C	0.876483	0.396574	0.997469
119	C	0.905584	0.450849	0.993682
120	C	0.879354	0.478729	0.99909
121	H	0.893723	0.375288	0.992183
122	H	0.898974	0.517652	0.996109
123	H	0.765182	0.38355	0.030951
124	C	0.57002	0.37845	0.014101
125	C	0.62329	0.406579	0.021609
126	C	0.653652	0.45925	0.01224
127	C	0.628257	0.485065	0.996888
128	C	0.573994	0.459796	0.993023
129	C	0.54618	0.405663	0.998251
130	H	0.649483	0.523637	0.99182
131	H	0.507247	0.386341	0.995355
132	H	0.641513	0.386822	0.030112
133	C	0.646179	0.196458	0.013701
134	C	0.618082	0.221749	0.020524
135	C	0.565372	0.199301	0.011368
136	C	0.539505	0.147883	0.996578
137	C	0.564824	0.118909	0.992911
138	C	0.618956	0.145252	0.998234
139	H	0.500914	0.130436	0.991602
140	H	0.638246	0.125578	0.995701
141	H	0.637863	0.259817	0.028745
142	C	0.991592	0.461224	0.010597
143	C	0.9604	0.47737	0.322199
144	N	0.986246	0.522873	0.299938
145	H	0.976345	0.428786	0.029816
146	C	0.488121	0.537745	0.319517
147	N	0.533449	0.556845	0.008757
148	C	0.56351	0.53529	0.010252
149	C	0.54744	0.488062	0.321672
150	N	0.502105	0.468568	0.299164
151	C	0.472215	0.490676	0.296357
152	H	0.595736	0.552253	0.029758
153	C	0.429114	0.466789	0.269088
154	O	0.403242	0.420244	0.270306
155	O	0.424881	0.487031	0.23411
156	H	0.444058	0.519762	0.227094
157	C	0.486793	0.955057	0.319958
158	N	0.467968	0.981395	0.009427
159	C	0.489586	0.033024	0.010806
160	C	0.536584	0.064062	0.321843
161	N	0.555803	0.038112	0.299097
162	C	0.533614	0.98609	0.296406
163	H	0.472805	0.048386	0.030431
164	C	0.557116	0.966668	0.268915
165	O	0.603714	0.987758	0.26895
166	O	0.536414	0.94185	0.234187
167	H	0.503534	0.927963	0.227654
168	C	0.325794	0.539451	0.019507
169	C	0.486034	0.698084	0.023623
170	N	0.501847	0.729319	0.319701
171	C	0.506002	0.77646	0.317709
172	C	0.485247	0.791141	0.020533
173	N	0.470997	0.760554	0.057818
174	C	0.473446	0.717292	0.062747
175	H	0.512785	0.794229	0.286876
176	C	0.456534	0.690832	0.103666
177	O	0.423471	0.693191	0.125669
178	O	0.476651	0.668651	0.122254
179	H	0.50303	0.666979	0.111296
180	C	0.326659	0.792667	0.024819
181	C	0.333181	0.769616	0.104774
182	O	0.330913	0.73403	0.126428
183	O	0.35542	0.811783	0.123584
184	H	0.357106	0.839915	0.112832
185	C	0.799857	0.480088	0.02261
186	N	0.78523	0.496036	0.318291
187	C	0.742636	0.50078	0.315674
188	C	0.707131	0.481477	0.018491
189	N	0.722585	0.4669	0.056144
190	C	0.767711	0.468209	0.061483
191	H	0.732314	0.508117	0.284739
192	C	0.775925	0.45162	0.103133
193	O	0.741488	0.412167	0.119395
194	O	0.818735	0.466877	0.119599
195	H	0.846695	0.495062	0.111098
196	C	0.544862	0.324873	0.021922
197	N	0.529012	0.29433	0.317558
198	C	0.523836	0.246796	0.314956
199	C	0.543128	0.230506	0.017759
200	N	0.557848	0.260672	0.055334
201	C	0.556689	0.304568	0.060728
202	H	0.517059	0.2295	0.283896
203	C	0.573698	0.330243	0.101985
204	O	0.606717	0.327331	0.123548
205	O	0.554689	0.353407	0.120693
206	H	0.528586	0.355717	0.109942
207	C	0.699706	0.22491	0.021895
208	N	0.730899	0.239649	0.317984
209	C	0.778284	0.282281	0.31598
210	C	0.793744	0.317697	0.018837
211	N	0.763021	0.302041	0.056051
212	C	0.719152	0.256841	0.060952
213	H	0.796533	0.292723	0.28531
214	C	0.692582	0.247764	0.101782
215	O	0.696484	0.283648	0.124116
216	O	0.67077	0.205735	0.120846
217	H	0.66841	0.177398	0.109832
218	C	0.46187	0.644664	0.348512
219	C	0.408691	0.61546	0.355908
220	C	0.379349	0.562788	0.346275
221	C	0.405636	0.5381	0.330286
222	C	0.459869	0.564521	0.325238
223	C	0.48647	0.618579	0.331789
224	H	0.385173	0.499291	0.327427
225	H	0.525271	0.638973	0.327842
226	H	0.389761	0.634377	0.364922
227	C	0.380139	0.822158	0.350004
228	C	0.40949	0.798397	0.357723
229	C	0.462045	0.821536	0.347577
230	C	0.486555	0.872307	0.331047
231	C	0.460087	0.900076	0.326009
232	C	0.406067	0.872627	0.332764
233	H	0.525323	0.890606	0.327803
234	H	0.385611	0.890938	0.328585
235	H	0.39061	0.760585	0.366816
236	C	0.828402	0.454991	0.348501
237	C	0.80319	0.401704	0.355908
238	C	0.825316	0.371222	0.346309
239	C	0.876483	0.396574	0.330802
240	C	0.905584	0.450849	0.327017
241	C	0.879354	0.478729	0.332424
242	H	0.893723	0.375288	0.325517
243	H	0.898974	0.517652	0.329445
244	H	0.765182	0.38355	0.364283
245	C	0.57002	0.37845	0.347434
246	C	0.62329	0.406579	0.354943
247	C	0.653652	0.45925	0.345575
248	C	0.628257	0.485065	0.330222
249	C	0.573994	0.459796	0.326358
250	C	0.54618	0.405663	0.331586
251	H	0.649483	0.523637	0.325154
252	H	0.507247	0.386341	0.328688
253	H	0.641513	0.386822	0.363444
254	C	0.646179	0.196458	0.347033
255	C	0.618082	0.221749	0.353858
256	C	0.565372	0.199301	0.344701
257	C	0.539505	0.147883	0.329913
258	C	0.564824	0.118909	0.326243
259	C	0.618956	0.145252	0.331567
260	H	0.500914	0.130436	0.324935
261	H	0.638246	0.125578	0.329034
262	H	0.637863	0.259817	0.362077
263	C	0.991592	0.461224	0.34393
264	C	0.9604	0.47737	0.655531
265	N	0.986246	0.522873	0.633271
266	H	0.976345	0.428786	0.363148
267	C	0.488121	0.537745	0.652849
268	N	0.533449	0.556845	0.342091
269	C	0.56351	0.53529	0.343583
270	C	0.54744	0.488062	0.655004
271	N	0.502105	0.468568	0.632496
272	C	0.472215	0.490676	0.629691
273	H	0.595736	0.552253	0.36309
274	C	0.429114	0.466789	0.602421
275	O	0.403242	0.420244	0.603638
276	O	0.424881	0.487031	0.567441
277	H	0.444058	0.519762	0.560429
278	C	0.486793	0.955057	0.653291
279	N	0.467968	0.981395	0.34276
280	C	0.489586	0.033024	0.34414
281	C	0.536584	0.064062	0.655178
282	N	0.555803	0.038112	0.632431
283	C	0.533614	0.98609	0.629739
284	H	0.472805	0.048386	0.363763
285	C	0.557116	0.966668	0.602248
286	O	0.603714	0.987758	0.602282
287	O	0.536414	0.94185	0.567519
288	H	0.503534	0.927963	0.560986
289	C	0.325794	0.539451	0.352839
290	C	0.486034	0.698084	0.356955
291	N	0.501847	0.729319	0.653033
292	C	0.506002	0.77646	0.651041
293	C	0.485247	0.791141	0.353865
294	N	0.470997	0.760554	0.391149
295	C	0.473446	0.717292	0.396078
296	H	0.512785	0.794229	0.620208
297	C	0.456534	0.690832	0.436999
298	O	0.423471	0.693191	0.459001
299	O	0.476651	0.668651	0.455589
300	H	0.50303	0.666979	0.44463
301	C	0.326659	0.792667	0.358151
302	C	0.333181	0.769616	0.438107
303	O	0.330913	0.73403	0.459759
304	O	0.35542	0.811783	0.456918
305	H	0.357106	0.839915	0.446163
306	C	0.799857	0.480088	0.355942
307	N	0.78523	0.496036	0.651622
308	C	0.742636	0.50078	0.649008
309	C	0.707131	0.481477	0.351822
310	N	0.722585	0.4669	0.389477
311	C	0.767711	0.468209	0.394817
312	H	0.732314	0.508117	0.618074
313	C	0.775925	0.45162	0.436466
314	O	0.741488	0.412167	0.45273
315	O	0.818735	0.466877	0.452934
316	H	0.846695	0.495062	0.44443
317	C	0.544862	0.324873	0.355255
318	N	0.529012	0.29433	0.650891
319	C	0.523836	0.246796	0.648288
320	C	0.543128	0.230506	0.351092
321	N	0.557848	0.260672	0.388668
322	C	0.556689	0.304568	0.394062
323	H	0.517059	0.2295	0.617227
324	C	0.573698	0.330243	0.435317
325	O	0.606717	0.327331	0.45688
326	O	0.554689	0.353407	0.454025
327	H	0.528586	0.355717	0.443274
328	C	0.699706	0.22491	0.355228
329	N	0.730899	0.239649	0.651316
330	C	0.778284	0.282281	0.649314
331	C	0.793744	0.317697	0.352169
332	N	0.763021	0.302041	0.389385
333	C	0.719152	0.256841	0.394283
334	H	0.796533	0.292723	0.618645
335	C	0.692582	0.247764	0.435116
336	O	0.696484	0.283648	0.457448
337	O	0.67077	0.205735	0.454178
338	H	0.66841	0.177398	0.443165
339	C	0.46187	0.644664	0.681843
340	C	0.408691	0.61546	0.689243
341	C	0.379349	0.562788	0.67961
342	C	0.405636	0.5381	0.663617
343	C	0.459869	0.564521	0.65857
344	C	0.48647	0.618579	0.665123
345	H	0.385173	0.499291	0.660759
346	H	0.525271	0.638973	0.661177
347	H	0.389761	0.634377	0.698254
348	C	0.380139	0.822158	0.683335
349	C	0.40949	0.798397	0.691055
350	C	0.462045	0.821536	0.680908
351	C	0.486555	0.872307	0.664379
352	C	0.460087	0.900076	0.659341
353	C	0.406067	0.872627	0.666095
354	H	0.525323	0.890606	0.661136
355	H	0.385611	0.890938	0.661918
356	H	0.39061	0.760585	0.70015
357	C	0.828402	0.454991	0.681833
358	C	0.80319	0.401704	0.689243
359	C	0.825316	0.371222	0.679641
360	C	0.876483	0.396574	0.664134
361	C	0.905584	0.450849	0.660351
362	C	0.879354	0.478729	0.665755
363	H	0.893723	0.375288	0.658849
364	H	0.898974	0.517652	0.662778
365	H	0.765182	0.38355	0.697618
366	C	0.57002	0.37845	0.680766
367	C	0.62329	0.406579	0.688274
368	C	0.653652	0.45925	0.678906
369	C	0.628257	0.485065	0.663553
370	C	0.573994	0.459796	0.659692
371	C	0.54618	0.405663	0.664919
372	H	0.649483	0.523637	0.658488
373	H	0.507247	0.386341	0.66202
374	H	0.641513	0.386822	0.696779
375	C	0.646179	0.196458	0.680368
376	C	0.618082	0.221749	0.68719
377	C	0.565372	0.199301	0.678033
378	C	0.539505	0.147883	0.663247
379	C	0.564824	0.118909	0.659576
380	C	0.618956	0.145252	0.664899
381	H	0.500914	0.130436	0.658267
382	H	0.638246	0.125578	0.662367
383	H	0.637863	0.259817	0.695409
384	C	0.991592	0.461224	0.677265
385	C	0.9604	0.47737	0.988866
386	N	0.986246	0.522873	0.966606
387	H	0.976345	0.428786	0.696483
388	C	0.488121	0.537745	0.986184
389	N	0.533449	0.556845	0.675422
390	C	0.56351	0.53529	0.676918
391	C	0.54744	0.488062	0.988336
392	N	0.502105	0.468568	0.965831
393	C	0.472215	0.490676	0.963023
394	H	0.595736	0.552253	0.696425
395	C	0.429114	0.466789	0.935752
396	O	0.403242	0.420244	0.936973
397	O	0.424881	0.487031	0.900776
398	H	0.444058	0.519762	0.893761
399	C	0.486793	0.955057	0.986623
400	N	0.467968	0.981395	0.676095
401	C	0.489586	0.033024	0.677472
402	C	0.536584	0.064062	0.988509
403	N	0.555803	0.038112	0.965763
404	C	0.533614	0.98609	0.963071
405	H	0.472805	0.048386	0.697098
406	C	0.557116	0.966668	0.935579
407	O	0.603714	0.987758	0.935616
408	O	0.536414	0.94185	0.900854
409	H	0.503534	0.927963	0.894318
410	C	0.325794	0.539451	0.686174
411	C	0.486034	0.698084	0.69029
412	N	0.501847	0.729319	0.986368
413	C	0.506002	0.77646	0.984376
414	C	0.485247	0.791141	0.6872
415	N	0.470997	0.760554	0.724484
416	C	0.473446	0.717292	0.729413
417	H	0.512785	0.794229	0.953543
418	C	0.456534	0.690832	0.770331
419	O	0.423471	0.693191	0.792336
420	O	0.476651	0.668651	0.78892
421	H	0.50303	0.666979	0.777962
422	C	0.326659	0.792667	0.691486
423	C	0.333181	0.769616	0.771439
424	O	0.330913	0.73403	0.793094
425	O	0.35542	0.811783	0.790249
426	H	0.357106	0.839915	0.779498
427	C	0.799857	0.480088	0.689277
428	N	0.78523	0.496036	0.984957
429	C	0.742636	0.50078	0.98234
430	C	0.707131	0.481477	0.685157
431	N	0.722585	0.4669	0.722809
432	C	0.767711	0.468209	0.728148
433	H	0.732314	0.508117	0.951405
434	C	0.775925	0.45162	0.7698
435	O	0.741488	0.412167	0.786062
436	O	0.818735	0.466877	0.786265
437	H	0.846695	0.495062	0.777764
438	C	0.544862	0.324873	0.688587
439	N	0.529012	0.29433	0.984223
440	C	0.523836	0.246796	0.981623
441	C	0.543128	0.230506	0.684423
442	N	0.557848	0.260672	0.722
443	C	0.556689	0.304568	0.727394
444	H	0.517059	0.2295	0.950562
445	C	0.573698	0.330243	0.768652
446	O	0.606717	0.327331	0.790215
447	O	0.554689	0.353407	0.78736
448	H	0.528586	0.355717	0.776609
449	C	0.699706	0.22491	0.68856
450	N	0.730899	0.239649	0.984651
451	C	0.778284	0.282281	0.982646
452	C	0.793744	0.317697	0.685504
453	N	0.763021	0.302041	0.722717
454	C	0.719152	0.256841	0.727618
455	H	0.796533	0.292723	0.951976
456	C	0.692582	0.247764	0.768448
457	O	0.696484	0.283648	0.790783
458	O	0.67077	0.205735	0.787513
459	H	0.66841	0.177398	0.776497
