data_C324H144N72O72_2018-02-15_10:40:07
#******************************************
#
# CIF file created by Zeo++
# Zeo++ is an open source package to
# analyze microporous materials
#
#*******************************************

_cell_length_a		29.6703   
_cell_length_b		29.6704   
_cell_length_c		29.9512   
_cell_angle_alpha		90   
_cell_angle_beta		90   
_cell_angle_gamma		120   

_symmetry_space_group_name_H-M		'P1'
_symmetry_Int_Tables_number		1
_symmetry_cell_setting		Monoclinic

loop_
_symmetry_equiv_pos_as_xyz
'+x,+y,+z'

loop_
_atom_site_label
_atom_site_type_symbol
_atom_site_fract_x
_atom_site_fract_y
_atom_site_fract_z
1	C	0.023356	0.288727	0.026988
2	O	0.021548	0.361534	0.042905
3	C	0.023356	0.288727	0.360322
4	O	0.021548	0.361534	0.376238
5	C	0.023356	0.288727	0.693657
6	O	0.021548	0.361534	0.709573
7	C	0.023358	0.788728	0.026988
8	O	0.021546	0.861531	0.042906
9	C	0.023358	0.788728	0.360322
10	O	0.021546	0.861531	0.376238
11	C	0.023358	0.788728	0.693657
12	O	0.021546	0.861531	0.709573
13	C	0.111422	0.295146	0.013941
14	C	0.139288	0.3499	0.010759
15	C	0.193976	0.380085	0.010293
16	C	0.221452	0.352466	0.010415
17	C	0.197121	0.29748	0.013494
18	C	0.141555	0.269954	0.013688
19	H	0.260653	0.373559	0.006223
20	H	0.122239	0.230248	0.01605
21	H	0.119099	0.367959	0.00209
22	C	0.390182	0.183496	0.0014
23	C	0.361389	0.129024	0.995074
24	C	0.306528	0.100204	0.996486
25	C	0.279982	0.128562	0.000613
26	C	0.305714	0.183419	0.004907
27	C	0.361064	0.209443	0.006911
28	H	0.240348	0.107998	0.001555
29	H	0.380998	0.24902	0.010526
30	H	0.380836	0.108944	0.994917
31	C	0.226692	0.271268	0.014294
32	N	0.201684	0.220048	0.335839
33	C	0.223532	0.18945	0.332757
34	C	0.277399	0.210642	0.007894
35	N	0.302096	0.261347	0.020785
36	C	0.280699	0.292529	0.024647
37	H	0.200283	0.15222	0.322016
38	C	0.312024	0.339619	0.045343
39	O	0.357685	0.365757	0.033877
40	O	0.299224	0.345138	0.083335
41	H	0.318144	0.372542	0.100557
42	C	0.219914	0.43536	0.007457
43	N	0.269575	0.460407	0.324895
44	C	0.299625	0.012462	0.31956
45	C	0.279099	0.044972	0.997204
46	N	0.229992	0.020045	0.013804
47	C	0.199229	0.468	0.019385
48	H	0.335853	0.026358	0.306319
49	C	0.155012	0.453328	0.044332
50	O	0.126217	0.470035	0.033529
51	O	0.157437	0.443536	0.084091
52	H	0.133786	0.438886	0.104431
53	C	0.055868	0.268099	0.014035
54	N	0.030412	0.218625	0.331242
55	C	0.478082	0.189234	0.326222
56	C	0.445574	0.209954	0.004105
57	N	0.471064	0.25869	0.021433
58	H	0.46409	0.153338	0.312321
59	C	0.039104	0.333231	0.052401
60	O	0.051925	0.334783	0.091883
61	H	0.062234	0.314222	0.104092
62	C	0.111422	0.295146	0.347274
63	C	0.139288	0.3499	0.344093
64	C	0.193976	0.380085	0.343629
65	C	0.221452	0.352466	0.343749
66	C	0.197121	0.29748	0.346827
67	C	0.141555	0.269954	0.347021
68	H	0.260653	0.373559	0.339555
69	H	0.122239	0.230248	0.349385
70	H	0.119099	0.367959	0.335425
71	C	0.390182	0.183496	0.334734
72	C	0.361389	0.129024	0.328405
73	C	0.306528	0.100204	0.329818
74	C	0.279982	0.128562	0.333946
75	C	0.305714	0.183419	0.33824
76	C	0.361064	0.209443	0.340243
77	H	0.240348	0.107998	0.334888
78	H	0.380998	0.24902	0.343859
79	H	0.380836	0.108944	0.328251
80	C	0.226692	0.271268	0.347628
81	N	0.201684	0.220048	0.669171
82	C	0.223532	0.18945	0.666089
83	C	0.277399	0.210642	0.341228
84	N	0.302096	0.261347	0.354119
85	C	0.280699	0.292529	0.357982
86	H	0.200283	0.15222	0.655352
87	C	0.312024	0.339619	0.378675
88	O	0.357685	0.365757	0.36721
89	O	0.299224	0.345138	0.416667
90	H	0.318144	0.372542	0.433892
91	C	0.219914	0.43536	0.340791
92	N	0.269575	0.460407	0.65823
93	C	0.299625	0.012462	0.652895
94	C	0.279099	0.044972	0.330538
95	N	0.229992	0.020045	0.347138
96	C	0.199229	0.468	0.35272
97	H	0.335853	0.026358	0.639653
98	C	0.155012	0.453328	0.377667
99	O	0.126217	0.470035	0.366863
100	O	0.157437	0.443536	0.417425
101	H	0.133786	0.438886	0.437765
102	C	0.055868	0.268099	0.347368
103	N	0.030412	0.218625	0.664577
104	C	0.478082	0.189234	0.659555
105	C	0.445574	0.209954	0.337438
106	N	0.471064	0.25869	0.354767
107	H	0.46409	0.153338	0.645656
108	C	0.039104	0.333231	0.385734
109	O	0.051925	0.334783	0.425218
110	H	0.062234	0.314222	0.437424
111	C	0.111422	0.295146	0.68061
112	C	0.139288	0.3499	0.677428
113	C	0.193976	0.380085	0.67696
114	C	0.221452	0.352466	0.677084
115	C	0.197121	0.29748	0.680162
116	C	0.141555	0.269954	0.680356
117	H	0.260653	0.373559	0.67289
118	H	0.122239	0.230248	0.682716
119	H	0.119099	0.367959	0.668757
120	C	0.390182	0.183496	0.668069
121	C	0.361389	0.129024	0.661739
122	C	0.306528	0.100204	0.663151
123	C	0.279982	0.128562	0.667281
124	C	0.305714	0.183419	0.671575
125	C	0.361064	0.209443	0.673578
126	H	0.240348	0.107998	0.668223
127	H	0.380998	0.24902	0.677194
128	H	0.380836	0.108944	0.661585
129	C	0.226692	0.271268	0.68096
130	N	0.201684	0.220048	0.002504
131	C	0.223532	0.18945	0.999424
132	C	0.277399	0.210642	0.674563
133	N	0.302096	0.261347	0.687454
134	C	0.280699	0.292529	0.691314
135	H	0.200283	0.15222	0.988684
136	C	0.312024	0.339619	0.712011
137	O	0.357685	0.365757	0.700545
138	O	0.299224	0.345138	0.750002
139	H	0.318144	0.372542	0.767224
140	C	0.219914	0.43536	0.674126
141	N	0.269575	0.460407	0.991562
142	C	0.299625	0.012462	0.986226
143	C	0.279099	0.044972	0.663872
144	N	0.229992	0.020045	0.680473
145	C	0.199229	0.468	0.686052
146	H	0.335853	0.026358	0.972985
147	C	0.155012	0.453328	0.710999
148	O	0.126217	0.470035	0.700198
149	O	0.157437	0.443536	0.750757
150	H	0.133786	0.438886	0.7711
151	C	0.055868	0.268099	0.680703
152	N	0.030412	0.218625	0.997909
153	C	0.478082	0.189234	0.992891
154	C	0.445574	0.209954	0.670774
155	N	0.471064	0.25869	0.688102
156	H	0.46409	0.153338	0.978988
157	C	0.039104	0.333231	0.719069
158	O	0.051925	0.334783	0.75855
159	H	0.062234	0.314222	0.770759
160	C	0.111422	0.795145	0.013941
161	C	0.139288	0.849899	0.01076
162	C	0.193975	0.880083	0.010294
163	C	0.221452	0.852463	0.010416
164	C	0.197121	0.79748	0.013495
165	C	0.141555	0.769954	0.013688
166	H	0.260652	0.873557	0.006224
167	H	0.122238	0.730246	0.01605
168	H	0.119099	0.867956	0.002091
169	C	0.390181	0.683495	0.001399
170	C	0.361389	0.629022	0.995071
171	C	0.306528	0.600203	0.996483
172	C	0.279983	0.628562	0.000613
173	C	0.305714	0.683417	0.004906
174	C	0.361064	0.709441	0.00691
175	H	0.240349	0.607998	0.001554
176	H	0.380998	0.74902	0.010526
177	H	0.380836	0.608944	0.994917
178	C	0.226692	0.771266	0.014294
179	N	0.201683	0.720046	0.335839
180	C	0.223532	0.689449	0.332756
181	C	0.277398	0.71064	0.007894
182	N	0.302096	0.761345	0.020785
183	C	0.280699	0.79253	0.024647
184	H	0.200283	0.65222	0.322016
185	C	0.312023	0.839617	0.045344
186	O	0.357686	0.865758	0.033878
187	O	0.299222	0.845135	0.083336
188	H	0.318143	0.872541	0.100558
189	C	0.219916	0.935362	0.007458
190	N	0.269574	0.960405	0.324896
191	C	0.299624	0.512459	0.319559
192	C	0.279099	0.544971	0.997204
193	N	0.229992	0.520045	0.013803
194	C	0.199228	0.967998	0.019385
195	H	0.335852	0.526357	0.306318
196	C	0.155012	0.953326	0.044332
197	O	0.126215	0.970033	0.03353
198	O	0.157437	0.943534	0.084091
199	H	0.133785	0.938884	0.104431
200	C	0.055868	0.768098	0.014035
201	N	0.030412	0.718626	0.331241
202	C	0.478084	0.689235	0.326221
203	C	0.445575	0.709955	0.004104
204	N	0.471064	0.758687	0.021433
205	H	0.464089	0.653337	0.31232
206	C	0.039104	0.83323	0.052402
207	O	0.051926	0.834783	0.091883
208	H	0.062234	0.814219	0.104092
209	C	0.111422	0.795145	0.347274
210	C	0.139288	0.849899	0.344093
211	C	0.193975	0.880083	0.343629
212	C	0.221452	0.852463	0.343749
213	C	0.197121	0.79748	0.346827
214	C	0.141555	0.769954	0.347021
215	H	0.260652	0.873557	0.339559
216	H	0.122238	0.730246	0.349385
217	H	0.119099	0.867956	0.335425
218	C	0.390181	0.683495	0.334734
219	C	0.361389	0.629022	0.328404
220	C	0.306528	0.600203	0.329817
221	C	0.279983	0.628562	0.333946
222	C	0.305714	0.683417	0.33824
223	C	0.361064	0.709441	0.340243
224	H	0.240349	0.607998	0.334888
225	H	0.380998	0.74902	0.343859
226	H	0.380836	0.608944	0.32825
227	C	0.226692	0.771266	0.347628
228	N	0.201683	0.720046	0.669171
229	C	0.223532	0.689449	0.666089
230	C	0.277398	0.71064	0.341228
231	N	0.302096	0.761345	0.354119
232	C	0.280699	0.79253	0.357982
233	H	0.200283	0.65222	0.655349
234	C	0.312023	0.839617	0.378679
235	O	0.357686	0.865758	0.367214
236	O	0.299222	0.845135	0.416671
237	H	0.318143	0.872541	0.433892
238	C	0.219916	0.935362	0.340791
239	N	0.269574	0.960405	0.65823
240	C	0.299624	0.512459	0.652891
241	C	0.279099	0.544971	0.330537
242	N	0.229992	0.520045	0.347138
243	C	0.199228	0.967998	0.35272
244	H	0.335852	0.526357	0.63965
245	C	0.155012	0.953326	0.377667
246	O	0.126215	0.970033	0.366863
247	O	0.157437	0.943534	0.417425
248	H	0.133785	0.938884	0.437765
249	C	0.055868	0.768098	0.347368
250	N	0.030412	0.718626	0.664577
251	C	0.478084	0.689235	0.659555
252	C	0.445575	0.709955	0.337438
253	N	0.471064	0.758687	0.354767
254	H	0.464089	0.653337	0.645653
255	C	0.039104	0.83323	0.385734
256	O	0.051926	0.834783	0.425218
257	H	0.062234	0.814219	0.437424
258	C	0.111422	0.795145	0.68061
259	C	0.139288	0.849899	0.677428
260	C	0.193975	0.880083	0.67696
261	C	0.221452	0.852463	0.677084
262	C	0.197121	0.79748	0.680162
263	C	0.141555	0.769954	0.680356
264	H	0.260652	0.873557	0.67289
265	H	0.122238	0.730246	0.682716
266	H	0.119099	0.867956	0.668757
267	C	0.390181	0.683495	0.668066
268	C	0.361389	0.629022	0.661739
269	C	0.306528	0.600203	0.663151
270	C	0.279983	0.628562	0.667278
271	C	0.305714	0.683417	0.671575
272	C	0.361064	0.709441	0.673578
273	H	0.240349	0.607998	0.668223
274	H	0.380998	0.74902	0.677194
275	H	0.380836	0.608944	0.661582
276	C	0.226692	0.771266	0.68096
277	N	0.201683	0.720046	0.002504
278	C	0.223532	0.689449	0.999424
279	C	0.277398	0.71064	0.67456
280	N	0.302096	0.761345	0.687454
281	C	0.280699	0.79253	0.691314
282	H	0.200283	0.65222	0.988684
283	C	0.312023	0.839617	0.712011
284	O	0.357686	0.865758	0.700545
285	O	0.299222	0.845135	0.750002
286	H	0.318143	0.872541	0.767227
287	C	0.219916	0.935362	0.674126
288	N	0.269574	0.960405	0.991565
289	C	0.299624	0.512459	0.986226
290	C	0.279099	0.544971	0.663872
291	N	0.229992	0.520045	0.680469
292	C	0.199228	0.967998	0.686052
293	H	0.335852	0.526357	0.972985
294	C	0.155012	0.953326	0.710999
295	O	0.126215	0.970033	0.700198
296	O	0.157437	0.943534	0.750757
297	H	0.133785	0.938884	0.7711
298	C	0.055868	0.768098	0.680703
299	N	0.030412	0.718626	0.997909
300	C	0.478084	0.689235	0.992887
301	C	0.445575	0.709955	0.67077
302	N	0.471064	0.758687	0.688098
303	H	0.464089	0.653337	0.978988
304	C	0.039104	0.83323	0.719069
305	O	0.051926	0.834783	0.75855
306	H	0.062234	0.814219	0.770759
307	C	0.611421	0.295146	0.013941
308	C	0.639287	0.3499	0.010759
309	C	0.693975	0.380085	0.010293
310	C	0.721452	0.352466	0.010415
311	C	0.697121	0.29748	0.013494
312	C	0.641555	0.269954	0.013688
313	H	0.760654	0.373559	0.006223
314	H	0.622238	0.230248	0.01605
315	H	0.619099	0.367959	0.00209
316	C	0.890183	0.183496	0.0014
317	C	0.86139	0.129024	0.995074
318	C	0.806529	0.100204	0.996486
319	C	0.779984	0.128562	0.000613
320	C	0.805713	0.183419	0.004907
321	C	0.861064	0.209443	0.006911
322	H	0.740349	0.107998	0.001555
323	H	0.880998	0.24902	0.010526
324	H	0.880837	0.108944	0.994917
325	C	0.726694	0.271268	0.014294
326	N	0.701684	0.220048	0.335839
327	C	0.723532	0.18945	0.332757
328	C	0.777401	0.210642	0.007894
329	N	0.802096	0.261347	0.020785
330	C	0.780698	0.292529	0.024647
331	H	0.700283	0.15222	0.322016
332	C	0.812025	0.339619	0.045343
333	O	0.857685	0.365757	0.033877
334	O	0.799223	0.345138	0.083335
335	H	0.818143	0.372542	0.100557
336	C	0.719913	0.43536	0.007457
337	N	0.769575	0.460407	0.324895
338	C	0.799627	0.012462	0.31956
339	C	0.779101	0.044972	0.997204
340	N	0.729992	0.020045	0.013804
341	C	0.69923	0.468	0.019385
342	H	0.835854	0.026358	0.306319
343	C	0.655012	0.453328	0.044332
344	O	0.626218	0.470035	0.033529
345	O	0.657437	0.443536	0.084091
346	H	0.633787	0.438886	0.104431
347	C	0.555869	0.268099	0.014035
348	N	0.530411	0.218625	0.331242
349	C	0.978083	0.189234	0.326222
350	C	0.945576	0.209954	0.004105
351	N	0.971066	0.25869	0.021433
352	C	0.523356	0.288727	0.026988
353	H	0.964089	0.153338	0.312321
354	C	0.539103	0.333231	0.052401
355	O	0.521549	0.361534	0.042905
356	O	0.551925	0.334783	0.091883
357	H	0.562234	0.314222	0.104092
358	C	0.611421	0.295146	0.347274
359	C	0.639287	0.3499	0.344093
360	C	0.693975	0.380085	0.343629
361	C	0.721452	0.352466	0.343749
362	C	0.697121	0.29748	0.346827
363	C	0.641555	0.269954	0.347021
364	H	0.760654	0.373559	0.339555
365	H	0.622238	0.230248	0.349385
366	H	0.619099	0.367959	0.335425
367	C	0.890183	0.183496	0.334734
368	C	0.86139	0.129024	0.328405
369	C	0.806529	0.100204	0.329818
370	C	0.779984	0.128562	0.333946
371	C	0.805713	0.183419	0.33824
372	C	0.861064	0.209443	0.340243
373	H	0.740349	0.107998	0.334888
374	H	0.880998	0.24902	0.343859
375	H	0.880837	0.108944	0.328251
376	C	0.726694	0.271268	0.347628
377	N	0.701684	0.220048	0.669171
378	C	0.723532	0.18945	0.666089
379	C	0.777401	0.210642	0.341228
380	N	0.802096	0.261347	0.354119
381	C	0.780698	0.292529	0.357982
382	H	0.700283	0.15222	0.655352
383	C	0.812025	0.339619	0.378675
384	O	0.857685	0.365757	0.36721
385	O	0.799223	0.345138	0.416667
386	H	0.818143	0.372542	0.433892
387	C	0.719913	0.43536	0.340791
388	N	0.769575	0.460407	0.65823
389	C	0.799627	0.012462	0.652895
390	C	0.779101	0.044972	0.330538
391	N	0.729992	0.020045	0.347138
392	C	0.69923	0.468	0.35272
393	H	0.835854	0.026358	0.639653
394	C	0.655012	0.453328	0.377667
395	O	0.626218	0.470035	0.366863
396	O	0.657437	0.443536	0.417425
397	H	0.633787	0.438886	0.437765
398	C	0.555869	0.268099	0.347368
399	N	0.530411	0.218625	0.664577
400	C	0.978083	0.189234	0.659555
401	C	0.945576	0.209954	0.337438
402	N	0.971066	0.25869	0.354767
403	C	0.523356	0.288727	0.360322
404	H	0.964089	0.153338	0.645656
405	C	0.539103	0.333231	0.385734
406	O	0.521549	0.361534	0.376238
407	O	0.551925	0.334783	0.425218
408	H	0.562234	0.314222	0.437424
409	C	0.611421	0.295146	0.68061
410	C	0.639287	0.3499	0.677428
411	C	0.693975	0.380085	0.67696
412	C	0.721452	0.352466	0.677084
413	C	0.697121	0.29748	0.680162
414	C	0.641555	0.269954	0.680356
415	H	0.760654	0.373559	0.67289
416	H	0.622238	0.230248	0.682716
417	H	0.619099	0.367959	0.668757
418	C	0.890183	0.183496	0.668069
419	C	0.86139	0.129024	0.661739
420	C	0.806529	0.100204	0.663151
421	C	0.779984	0.128562	0.667281
422	C	0.805713	0.183419	0.671575
423	C	0.861064	0.209443	0.673578
424	H	0.740349	0.107998	0.668223
425	H	0.880998	0.24902	0.677194
426	H	0.880837	0.108944	0.661585
427	C	0.726694	0.271268	0.68096
428	N	0.701684	0.220048	0.002504
429	C	0.723532	0.18945	0.999424
430	C	0.777401	0.210642	0.674563
431	N	0.802096	0.261347	0.687454
432	C	0.780698	0.292529	0.691314
433	H	0.700283	0.15222	0.988684
434	C	0.812025	0.339619	0.712011
435	O	0.857685	0.365757	0.700545
436	O	0.799223	0.345138	0.750002
437	H	0.818143	0.372542	0.767224
438	C	0.719913	0.43536	0.674126
439	N	0.769575	0.460407	0.991562
440	C	0.799627	0.012462	0.986226
441	C	0.779101	0.044972	0.663872
442	N	0.729992	0.020045	0.680473
443	C	0.69923	0.468	0.686052
444	H	0.835854	0.026358	0.972985
445	C	0.655012	0.453328	0.710999
446	O	0.626218	0.470035	0.700198
447	O	0.657437	0.443536	0.750757
448	H	0.633787	0.438886	0.7711
449	C	0.555869	0.268099	0.680703
450	N	0.530411	0.218625	0.997909
451	C	0.978083	0.189234	0.992891
452	C	0.945576	0.209954	0.670774
453	N	0.971066	0.25869	0.688102
454	C	0.523356	0.288727	0.693657
455	H	0.964089	0.153338	0.978988
456	C	0.539103	0.333231	0.719069
457	O	0.521549	0.361534	0.709573
458	O	0.551925	0.334783	0.75855
459	H	0.562234	0.314222	0.770759
460	C	0.611423	0.795145	0.013941
461	C	0.639288	0.849899	0.01076
462	C	0.693976	0.880083	0.010294
463	C	0.721452	0.852463	0.010416
464	C	0.697122	0.79748	0.013495
465	C	0.641555	0.769954	0.013688
466	H	0.760652	0.873557	0.006224
467	H	0.622239	0.730246	0.01605
468	H	0.619099	0.867956	0.002091
469	C	0.890182	0.683495	0.001399
470	C	0.861389	0.629022	0.995071
471	C	0.806528	0.600203	0.996483
472	C	0.779984	0.628562	0.000613
473	C	0.805716	0.683417	0.004906
474	C	0.861063	0.709441	0.00691
475	H	0.740349	0.607998	0.001554
476	H	0.880998	0.74902	0.010526
477	H	0.880837	0.608944	0.994917
478	C	0.726692	0.771266	0.014294
479	N	0.701682	0.720046	0.335839
480	C	0.723532	0.689449	0.332756
481	C	0.7774	0.71064	0.007894
482	N	0.802095	0.761345	0.020785
483	C	0.780701	0.79253	0.024647
484	H	0.700283	0.65222	0.322016
485	C	0.812023	0.839617	0.045344
486	O	0.857686	0.865758	0.033878
487	O	0.799222	0.845135	0.083336
488	H	0.818142	0.872541	0.100558
489	C	0.719916	0.935362	0.007458
490	N	0.769575	0.960405	0.324896
491	C	0.799626	0.512459	0.319559
492	C	0.779101	0.544971	0.997204
493	N	0.729991	0.520045	0.013803
494	C	0.699229	0.967998	0.019385
495	H	0.835853	0.526357	0.306318
496	C	0.655012	0.953326	0.044332
497	O	0.626217	0.970033	0.03353
498	O	0.657437	0.943534	0.084091
499	H	0.633786	0.938884	0.104431
500	C	0.555868	0.768098	0.014035
501	N	0.530413	0.718626	0.331241
502	C	0.978084	0.689235	0.326221
503	C	0.945576	0.709955	0.004104
504	N	0.971065	0.758687	0.021433
505	C	0.523358	0.788728	0.026988
506	H	0.964088	0.653337	0.31232
507	C	0.539104	0.83323	0.052402
508	O	0.521547	0.861531	0.042906
509	O	0.551926	0.834783	0.091883
510	H	0.562234	0.814219	0.104092
511	C	0.611423	0.795145	0.347274
512	C	0.639288	0.849899	0.344093
513	C	0.693976	0.880083	0.343629
514	C	0.721452	0.852463	0.343749
515	C	0.697122	0.79748	0.346827
516	C	0.641555	0.769954	0.347021
517	H	0.760652	0.873557	0.339559
518	H	0.622239	0.730246	0.349385
519	H	0.619099	0.867956	0.335425
520	C	0.890182	0.683495	0.334734
521	C	0.861389	0.629022	0.328404
522	C	0.806528	0.600203	0.329817
523	C	0.779984	0.628562	0.333946
524	C	0.805716	0.683417	0.33824
525	C	0.861063	0.709441	0.340243
526	H	0.740349	0.607998	0.334888
527	H	0.880998	0.74902	0.343859
528	H	0.880837	0.608944	0.32825
529	C	0.726692	0.771266	0.347628
530	N	0.701682	0.720046	0.669171
531	C	0.723532	0.689449	0.666089
532	C	0.7774	0.71064	0.341228
533	N	0.802095	0.761345	0.354119
534	C	0.780701	0.79253	0.357982
535	H	0.700283	0.65222	0.655349
536	C	0.812023	0.839617	0.378679
537	O	0.857686	0.865758	0.367214
538	O	0.799222	0.845135	0.416671
539	H	0.818142	0.872541	0.433892
540	C	0.719916	0.935362	0.340791
541	N	0.769575	0.960405	0.65823
542	C	0.799626	0.512459	0.652891
543	C	0.779101	0.544971	0.330537
544	N	0.729991	0.520045	0.347138
545	C	0.699229	0.967998	0.35272
546	H	0.835853	0.526357	0.63965
547	C	0.655012	0.953326	0.377667
548	O	0.626217	0.970033	0.366863
549	O	0.657437	0.943534	0.417425
550	H	0.633786	0.938884	0.437765
551	C	0.555868	0.768098	0.347368
552	N	0.530413	0.718626	0.664577
553	C	0.978084	0.689235	0.659555
554	C	0.945576	0.709955	0.337438
555	N	0.971065	0.758687	0.354767
556	C	0.523358	0.788728	0.360322
557	H	0.964088	0.653337	0.645653
558	C	0.539104	0.83323	0.385734
559	O	0.521547	0.861531	0.376238
560	O	0.551926	0.834783	0.425218
561	H	0.562234	0.814219	0.437424
562	C	0.611423	0.795145	0.68061
563	C	0.639288	0.849899	0.677428
564	C	0.693976	0.880083	0.67696
565	C	0.721452	0.852463	0.677084
566	C	0.697122	0.79748	0.680162
567	C	0.641555	0.769954	0.680356
568	H	0.760652	0.873557	0.67289
569	H	0.622239	0.730246	0.682716
570	H	0.619099	0.867956	0.668757
571	C	0.890182	0.683495	0.668066
572	C	0.861389	0.629022	0.661739
573	C	0.806528	0.600203	0.663151
574	C	0.779984	0.628562	0.667278
575	C	0.805716	0.683417	0.671575
576	C	0.861063	0.709441	0.673578
577	H	0.740349	0.607998	0.668223
578	H	0.880998	0.74902	0.677194
579	H	0.880837	0.608944	0.661582
580	C	0.726692	0.771266	0.68096
581	N	0.701682	0.720046	0.002504
582	C	0.723532	0.689449	0.999424
583	C	0.7774	0.71064	0.67456
584	N	0.802095	0.761345	0.687454
585	C	0.780701	0.79253	0.691314
586	H	0.700283	0.65222	0.988684
587	C	0.812023	0.839617	0.712011
588	O	0.857686	0.865758	0.700545
589	O	0.799222	0.845135	0.750002
590	H	0.818142	0.872541	0.767227
591	C	0.719916	0.935362	0.674126
592	N	0.769575	0.960405	0.991565
593	C	0.799626	0.512459	0.986226
594	C	0.779101	0.544971	0.663872
595	N	0.729991	0.520045	0.680469
596	C	0.699229	0.967998	0.686052
597	H	0.835853	0.526357	0.972985
598	C	0.655012	0.953326	0.710999
599	O	0.626217	0.970033	0.700198
600	O	0.657437	0.943534	0.750757
601	H	0.633786	0.938884	0.7711
602	C	0.555868	0.768098	0.680703
603	N	0.530413	0.718626	0.997909
604	C	0.978084	0.689235	0.992887
605	C	0.945576	0.709955	0.67077
606	N	0.971065	0.758687	0.688098
607	C	0.523358	0.788728	0.693657
608	H	0.964088	0.653337	0.978988
609	C	0.539104	0.83323	0.719069
610	O	0.521547	0.861531	0.709573
611	O	0.551926	0.834783	0.75855
612	H	0.562234	0.814219	0.770759
