data_C324H162N270_2018-02-15_10:38:29
#******************************************
#
# CIF file created by Zeo++
# Zeo++ is an open source package to
# analyze microporous materials
#
#*******************************************

_cell_length_a		39.2633   
_cell_length_b		39.2633   
_cell_length_c		29.8334   
_cell_angle_alpha		90   
_cell_angle_beta		90   
_cell_angle_gamma		120   

_symmetry_space_group_name_H-M		'P1'
_symmetry_Int_Tables_number		1
_symmetry_cell_setting		Monoclinic

loop_
_symmetry_equiv_pos_as_xyz
'+x,+y,+z'

loop_
_atom_site_label
_atom_site_type_symbol
_atom_site_fract_x
_atom_site_fract_y
_atom_site_fract_z
1	C	0.090417	0.436788	0.995687
2	N	0.120879	0.429379	0.994252
3	C	0.159394	0.458839	0.992945
4	N	0.166367	0.496653	0.993803
5	C	0.137319	0.505717	0.995087
6	N	0.10009	0.475158	0.996069
7	C	0.588667	0.673472	0.995503
8	N	0.596114	0.71136	0.994128
9	C	0.566677	0.720459	0.992958
10	N	0.528848	0.689644	0.993837
11	C	0.519739	0.651521	0.995037
12	N	0.550276	0.644819	0.995891
13	C	0.35198	0.935005	0.995476
14	N	0.314088	0.904569	0.994095
15	C	0.304974	0.866029	0.992952
16	N	0.335779	0.859	0.993833
17	C	0.373903	0.888003	0.995023
18	N	0.380617	0.925247	0.995871
19	C	0.930299	0.593444	0.995875
20	N	0.899835	0.600844	0.99436
21	C	0.861321	0.571381	0.993062
22	N	0.854355	0.53357	0.993967
23	C	0.883404	0.524512	0.995305
24	N	0.920632	0.555074	0.99628
25	C	0.431979	0.356718	0.995677
26	N	0.424544	0.318836	0.994279
27	C	0.453988	0.309752	0.993012
28	N	0.49181	0.340576	0.99386
29	C	0.500902	0.378693	0.99511
30	N	0.470363	0.385392	0.996056
31	C	0.668727	0.095214	0.995449
32	N	0.706619	0.125649	0.994081
33	C	0.715731	0.164191	0.992898
34	N	0.684924	0.171218	0.993763
35	C	0.646799	0.142211	0.994956
36	N	0.640086	0.104968	0.995821
37	C	0.436335	0.099709	0.001791
38	N	0.428661	0.129833	0.997769
39	C	0.45859	0.168104	0.996451
40	N	0.496374	0.175297	0.998228
41	C	0.505589	0.146442	0.001868
42	N	0.474647	0.109274	0.003518
43	C	0.668985	0.589112	0.001791
44	N	0.706769	0.596753	0.997715
45	C	0.715076	0.5668	0.996361
46	N	0.684467	0.529029	0.998167
47	C	0.646408	0.519848	0.001851
48	N	0.640217	0.55081	0.003538
49	C	0.925821	0.356448	0.00217
50	N	0.895676	0.318683	0.997946
51	C	0.857431	0.310399	0.996488
52	N	0.85029	0.34102	0.998332
53	C	0.879171	0.379063	0.002176
54	N	0.916323	0.385242	0.003944
55	C	0.584378	0.93052	0.001935
56	N	0.592038	0.900393	0.997822
57	C	0.562104	0.862126	0.996488
58	N	0.524324	0.854939	0.998328
59	C	0.515121	0.883798	0.002062
60	N	0.546069	0.920962	0.003704
61	C	0.351689	0.441058	0.002036
62	N	0.313915	0.433432	0.997906
63	C	0.305618	0.463385	0.996478
64	N	0.336239	0.501152	0.998258
65	C	0.374291	0.510322	0.001999
66	N	0.380479	0.479354	0.003759
67	C	0.094881	0.673772	0.002022
68	N	0.125029	0.71154	0.997849
69	C	0.163272	0.719821	0.996367
70	N	0.170407	0.689195	0.998161
71	C	0.141519	0.651148	0.001945
72	N	0.104369	0.644969	0.003755
73	C	0.266854	0.457395	0.327636
74	C	0.232104	0.420642	0.323121
75	C	0.19451	0.41783	0.321763
76	C	0.192844	0.453283	0.325765
77	N	0.228084	0.487057	0.996709
78	N	0.262227	0.489254	0.997567
79	N	0.162547	0.381457	0.31626
80	H	0.165226	0.358239	0.313159
81	H	0.136227	0.377275	0.31366
82	H	0.234246	0.395791	0.320421
83	C	0.568119	0.829367	0.327667
84	C	0.604876	0.831379	0.323142
85	C	0.607696	0.7966	0.321813
86	C	0.572246	0.759474	0.325811
87	N	0.538473	0.760938	0.99676
88	N	0.536266	0.792876	0.997614
89	N	0.644071	0.801014	0.316344
90	H	0.66729	0.826909	0.313265
91	H	0.648268	0.778875	0.313861
92	H	0.62972	0.858371	0.320437
93	C	0.196046	0.758582	0.327546
94	C	0.194048	0.793344	0.323153
95	C	0.228833	0.830941	0.321874
96	C	0.265954	0.832594	0.325776
97	N	0.264476	0.797338	0.996585
98	N	0.232531	0.763197	0.9974
99	N	0.224421	0.862917	0.316564
100	H	0.198527	0.860256	0.313562
101	H	0.246559	0.889262	0.314174
102	H	0.167058	0.791215	0.320531
103	C	0.753847	0.572805	0.327577
104	C	0.7886	0.609566	0.323137
105	C	0.8262	0.61239	0.321861
106	C	0.82787	0.576934	0.325838
107	N	0.792627	0.543155	0.996699
108	N	0.758479	0.540946	0.997497
109	N	0.858165	0.648778	0.316467
110	H	0.855494	0.672011	0.313509
111	H	0.884519	0.653007	0.314141
112	H	0.786453	0.634414	0.320443
113	C	0.452565	0.200858	0.327672
114	C	0.415803	0.198842	0.323163
115	C	0.412979	0.233619	0.321839
116	C	0.448428	0.270744	0.32585
117	N	0.482204	0.269285	0.996793
118	N	0.484415	0.237348	0.997628
119	N	0.376606	0.229206	0.316358
120	H	0.353388	0.203309	0.31326
121	H	0.372414	0.251344	0.313831
122	H	0.390962	0.171847	0.320444
123	C	0.824655	0.271637	0.327615
124	C	0.826656	0.236879	0.323158
125	C	0.79187	0.199285	0.321828
126	C	0.754748	0.197628	0.325751
127	N	0.756225	0.232878	0.996629
128	N	0.78817	0.267019	0.997487
129	N	0.79628	0.167315	0.316441
130	H	0.822175	0.16998	0.313415
131	H	0.77414	0.14098	0.313974
132	H	0.853646	0.239014	0.32052
133	C	0.14342	0.54444	0.996726
134	C	0.179921	0.578972	0.003817
135	C	0.182367	0.616307	0.007089
136	C	0.146979	0.617821	0.00171
137	N	0.113469	0.582901	0.328055
138	N	0.111549	0.548945	0.325921
139	N	0.218002	0.648163	0.016433
140	H	0.241142	0.645548	0.02102
141	H	0.221138	0.673766	0.022469
142	H	0.20461	0.57674	0.008001
143	C	0.481004	0.618918	0.996656
144	C	0.446498	0.620898	0.003897
145	C	0.409162	0.586013	0.007208
146	C	0.407619	0.549107	0.001714
147	N	0.442517	0.55051	0.327911
148	N	0.476475	0.582539	0.325746
149	N	0.377336	0.5898	0.016692
150	H	0.379908	0.61556	0.021078
151	H	0.351646	0.567341	0.022392
152	H	0.448756	0.647816	0.008219
153	C	0.406507	0.881874	0.996669
154	C	0.404539	0.845395	0.003938
155	C	0.439432	0.842957	0.00727
156	C	0.476331	0.878328	0.001784
157	N	0.474917	0.911816	0.327963
158	N	0.442883	0.91373	0.325774
159	N	0.435671	0.807352	0.016741
160	H	0.409925	0.784221	0.021392
161	H	0.458153	0.80424	0.022792
162	H	0.377622	0.820721	0.008207
163	C	0.877298	0.485786	0.996941
164	C	0.840787	0.451254	0.00397
165	C	0.83833	0.413913	0.007244
166	C	0.87372	0.412396	0.001922
167	N	0.907242	0.447319	0.32832
168	N	0.90917	0.481278	0.326187
169	N	0.80268	0.382054	0.016519
170	H	0.779535	0.384669	0.021066
171	H	0.799532	0.356442	0.022545
172	H	0.816093	0.453486	0.00811
173	C	0.539645	0.411287	0.996726
174	C	0.574156	0.409284	0.003833
175	C	0.611513	0.444155	0.007063
176	C	0.613064	0.481069	0.001637
177	N	0.578158	0.479684	0.327965
178	N	0.544184	0.447672	0.325862
179	N	0.643353	0.440352	0.016405
180	H	0.640719	0.414593	0.021019
181	H	0.668979	0.462815	0.022371
182	H	0.571897	0.382354	0.008052
183	C	0.614201	0.148351	0.996558
184	C	0.616172	0.184831	0.003828
185	C	0.581282	0.187276	0.007121
186	C	0.544384	0.151917	0.001586
187	N	0.545797	0.11843	0.327757
188	N	0.577826	0.116504	0.325605
189	N	0.585059	0.222882	0.01662
190	H	0.610811	0.24607	0.02103
191	H	0.562592	0.22611	0.022279
192	H	0.643087	0.209489	0.008182
193	C	0.966586	0.36912	0.336941
194	C	0.985566	0.35091	0.315798
195	C	0.027418	0.37082	0.312469
196	C	0.049405	0.408872	0.332279
197	N	0.028272	0.422927	0.020052
198	N	0.990219	0.404879	0.022132
199	N	0.044474	0.353954	0.288451
200	H	0.028737	0.328459	0.274168
201	H	0.072542	0.367447	0.282953
202	H	0.968864	0.324577	0.299855
203	C	0.656214	0.617136	0.336465
204	C	0.67466	0.654568	0.315878
205	C	0.654785	0.676554	0.312606
206	C	0.616498	0.660241	0.331872
207	N	0.602306	0.624903	0.019327
208	N	0.620331	0.604881	0.021374
209	N	0.671901	0.710737	0.289075
210	H	0.697545	0.720648	0.275114
211	H	0.658434	0.725327	0.283527
212	H	0.701174	0.664385	0.300294
213	C	0.408335	0.058904	0.336435
214	C	0.370856	0.039912	0.315954
215	C	0.348868	0.998049	0.312678
216	C	0.365235	0.976078	0.331814
217	N	0.400619	0.997232	0.019175
218	N	0.420637	0.035279	0.021232
219	N	0.314633	0.980992	0.289252
220	H	0.304686	0.996723	0.27537
221	H	0.300039	0.952936	0.283684
222	H	0.360988	0.056606	0.300462
223	C	0.054124	0.661123	0.336891
224	C	0.035126	0.679307	0.315731
225	C	0.993269	0.659374	0.312442
226	C	0.971307	0.621374	0.332387
227	N	0.992466	0.607364	0.020191
228	N	0.030521	0.625409	0.022196
229	N	0.97619	0.676163	0.288333
230	H	0.991892	0.701705	0.274133
231	H	0.948094	0.66275	0.283051
232	H	0.051819	0.705552	0.299615
233	C	0.364369	0.412966	0.336824
234	C	0.346085	0.375702	0.315854
235	C	0.365975	0.353733	0.312559
236	C	0.404093	0.369861	0.332222
237	N	0.418217	0.405129	0.019832
238	N	0.400185	0.42515	0.021884
239	N	0.349018	0.319722	0.288712
240	H	0.323479	0.309919	0.274522
241	H	0.362488	0.305123	0.283222
242	H	0.319695	0.366012	0.30002
243	C	0.612383	0.971328	0.336519
244	C	0.64984	0.990303	0.315991
245	C	0.671824	0.032163	0.312677
246	C	0.655479	0.054146	0.331836
247	N	0.620112	0.03301	0.019236
248	N	0.600094	0.994964	0.021324
249	N	0.706041	0.049212	0.289213
250	H	0.715975	0.033473	0.275321
251	H	0.720631	0.077265	0.28363
252	H	0.659691	0.973599	0.300495
253	C	0.090417	0.436788	0.32902
254	N	0.120879	0.429379	0.327586
255	C	0.159394	0.458839	0.326278
256	N	0.166367	0.496653	0.327136
257	C	0.137319	0.505717	0.328422
258	N	0.10009	0.475158	0.329405
259	C	0.588667	0.673472	0.328837
260	N	0.596114	0.71136	0.327464
261	C	0.566677	0.720459	0.326292
262	N	0.528848	0.689644	0.32717
263	C	0.519739	0.651521	0.32837
264	N	0.550276	0.644819	0.329226
265	C	0.35198	0.935005	0.32881
266	N	0.314088	0.904569	0.327429
267	C	0.304974	0.866029	0.326285
268	N	0.335779	0.859	0.327168
269	C	0.373903	0.888003	0.328358
270	N	0.380617	0.925247	0.329206
271	C	0.930299	0.593444	0.329209
272	N	0.899835	0.600844	0.327694
273	C	0.861321	0.571381	0.326396
274	N	0.854355	0.53357	0.3273
275	C	0.883404	0.524512	0.328638
276	N	0.920632	0.555074	0.329614
277	C	0.431979	0.356718	0.32901
278	N	0.424544	0.318836	0.327614
279	C	0.453988	0.309752	0.326345
280	N	0.49181	0.340576	0.327195
281	C	0.500902	0.378693	0.328443
282	N	0.470363	0.385392	0.329391
283	C	0.668727	0.095214	0.328784
284	N	0.706619	0.125649	0.327415
285	C	0.715731	0.164191	0.326232
286	N	0.684924	0.171218	0.327096
287	C	0.646799	0.142211	0.32829
288	N	0.640086	0.104968	0.329156
289	C	0.436335	0.099709	0.335125
290	N	0.428661	0.129833	0.331103
291	C	0.45859	0.168104	0.329785
292	N	0.496374	0.175297	0.331563
293	C	0.505589	0.146442	0.335202
294	N	0.474647	0.109274	0.336851
295	C	0.668985	0.589112	0.335124
296	N	0.706769	0.596753	0.331049
297	C	0.715076	0.5668	0.329695
298	N	0.684467	0.529029	0.3315
299	C	0.646408	0.519848	0.335184
300	N	0.640217	0.55081	0.336871
301	C	0.925821	0.356448	0.335503
302	N	0.895676	0.318683	0.33128
303	C	0.857431	0.310399	0.329821
304	N	0.85029	0.34102	0.331664
305	C	0.879171	0.379063	0.33551
306	N	0.916323	0.385242	0.337277
307	C	0.584378	0.93052	0.335269
308	N	0.592038	0.900393	0.331157
309	C	0.562104	0.862126	0.329823
310	N	0.524324	0.854939	0.331663
311	C	0.515121	0.883798	0.335396
312	N	0.546069	0.920962	0.337035
313	C	0.351689	0.441058	0.335369
314	N	0.313915	0.433432	0.331238
315	C	0.305618	0.463385	0.329813
316	N	0.336239	0.501152	0.331591
317	C	0.374291	0.510322	0.335333
318	N	0.380479	0.479354	0.337092
319	C	0.094881	0.673772	0.335356
320	N	0.125029	0.71154	0.331184
321	C	0.163272	0.719821	0.329703
322	N	0.170407	0.689195	0.331494
323	C	0.141519	0.651148	0.335279
324	N	0.104369	0.644969	0.337089
325	C	0.266854	0.457395	0.660968
326	C	0.232104	0.420642	0.656453
327	C	0.19451	0.41783	0.655095
328	C	0.192844	0.453283	0.659097
329	N	0.228084	0.487057	0.330043
330	N	0.262227	0.489254	0.3309
331	N	0.162547	0.381457	0.649595
332	H	0.165226	0.358239	0.646491
333	H	0.136227	0.377275	0.646994
334	H	0.234246	0.395791	0.653754
335	C	0.568119	0.829367	0.661001
336	C	0.604876	0.831379	0.656476
337	C	0.607696	0.7966	0.655145
338	C	0.572246	0.759474	0.659144
339	N	0.538473	0.760938	0.330094
340	N	0.536266	0.792876	0.330947
341	N	0.644071	0.801014	0.649678
342	H	0.66729	0.826909	0.646598
343	H	0.648268	0.778875	0.647195
344	H	0.62972	0.858371	0.653771
345	C	0.196046	0.758582	0.660877
346	C	0.194048	0.793344	0.656486
347	C	0.228833	0.830941	0.655206
348	C	0.265954	0.832594	0.659111
349	N	0.264476	0.797338	0.329918
350	N	0.232531	0.763197	0.330734
351	N	0.224421	0.862917	0.649896
352	H	0.198527	0.860256	0.646896
353	H	0.246559	0.889262	0.647506
354	H	0.167058	0.791215	0.653865
355	C	0.753847	0.572805	0.660911
356	C	0.7886	0.609566	0.65647
357	C	0.8262	0.61239	0.655196
358	C	0.82787	0.576934	0.659171
359	N	0.792627	0.543155	0.330032
360	N	0.758479	0.540946	0.330832
361	N	0.858165	0.648778	0.649799
362	H	0.855494	0.672011	0.646843
363	H	0.884519	0.653007	0.647473
364	H	0.786453	0.634414	0.653778
365	C	0.452565	0.200858	0.661005
366	C	0.415803	0.198842	0.656496
367	C	0.412979	0.233619	0.655172
368	C	0.448428	0.270744	0.659185
369	N	0.482204	0.269285	0.330126
370	N	0.484415	0.237348	0.330962
371	N	0.376606	0.229206	0.649692
372	H	0.353388	0.203309	0.646591
373	H	0.372414	0.251344	0.647165
374	H	0.390962	0.171847	0.653778
375	C	0.824655	0.271637	0.660948
376	C	0.826656	0.236879	0.656493
377	C	0.79187	0.199285	0.655159
378	C	0.754748	0.197628	0.659084
379	N	0.756225	0.232878	0.329963
380	N	0.78817	0.267019	0.330821
381	N	0.79628	0.167315	0.649776
382	H	0.822175	0.16998	0.646749
383	H	0.77414	0.14098	0.647305
384	H	0.853646	0.239014	0.653852
385	C	0.14342	0.54444	0.330062
386	C	0.179921	0.578972	0.337149
387	C	0.182367	0.616307	0.340421
388	C	0.146979	0.617821	0.335046
389	N	0.113469	0.582901	0.661387
390	N	0.111549	0.548945	0.659255
391	N	0.218002	0.648163	0.349766
392	H	0.241142	0.645548	0.354355
393	H	0.221138	0.673766	0.355803
394	H	0.20461	0.57674	0.341333
395	C	0.481004	0.618918	0.32999
396	C	0.446498	0.620898	0.33723
397	C	0.409162	0.586013	0.340541
398	C	0.407619	0.549107	0.335047
399	N	0.442517	0.55051	0.661243
400	N	0.476475	0.582539	0.659077
401	N	0.377336	0.5898	0.350024
402	H	0.379908	0.61556	0.354412
403	H	0.351646	0.567341	0.355726
404	H	0.448756	0.647816	0.341554
405	C	0.406507	0.881874	0.330005
406	C	0.404539	0.845395	0.33727
407	C	0.439432	0.842957	0.340602
408	C	0.476331	0.878328	0.335118
409	N	0.474917	0.911816	0.661296
410	N	0.442883	0.91373	0.659108
411	N	0.435671	0.807352	0.350074
412	H	0.409925	0.784221	0.354727
413	H	0.458153	0.80424	0.356125
414	H	0.377622	0.820721	0.34154
415	C	0.877298	0.485786	0.330274
416	C	0.840787	0.451254	0.337303
417	C	0.83833	0.413913	0.340578
418	C	0.87372	0.412396	0.335255
419	N	0.907242	0.447319	0.661652
420	N	0.90917	0.481278	0.65952
421	N	0.80268	0.382054	0.349853
422	H	0.779535	0.384669	0.354398
423	H	0.799532	0.356442	0.355877
424	H	0.816093	0.453486	0.341443
425	C	0.539645	0.411287	0.33006
426	C	0.574156	0.409284	0.337166
427	C	0.611513	0.444155	0.340397
428	C	0.613064	0.481069	0.33497
429	N	0.578158	0.479684	0.661296
430	N	0.544184	0.447672	0.659195
431	N	0.643353	0.440352	0.349739
432	H	0.640719	0.414593	0.354351
433	H	0.668979	0.462815	0.355702
434	H	0.571897	0.382354	0.341386
435	C	0.614201	0.148351	0.329893
436	C	0.616172	0.184831	0.337163
437	C	0.581282	0.187276	0.340454
438	C	0.544384	0.151917	0.334919
439	N	0.545797	0.11843	0.661092
440	N	0.577826	0.116504	0.65894
441	N	0.585059	0.222882	0.349954
442	H	0.610811	0.24607	0.354365
443	H	0.562592	0.22611	0.355612
444	H	0.643087	0.209489	0.341514
445	C	0.966586	0.36912	0.670273
446	C	0.985566	0.35091	0.649132
447	C	0.027418	0.37082	0.6458
448	C	0.049405	0.408872	0.66561
449	N	0.028272	0.422927	0.353386
450	N	0.990219	0.404879	0.355464
451	N	0.044474	0.353954	0.621784
452	H	0.028737	0.328459	0.607501
453	H	0.072542	0.367447	0.616286
454	H	0.968864	0.324577	0.633187
455	C	0.656214	0.617136	0.6698
456	C	0.67466	0.654568	0.649213
457	C	0.654785	0.676554	0.645938
458	C	0.616498	0.660241	0.665205
459	N	0.602306	0.624903	0.352659
460	N	0.620331	0.604881	0.354707
461	N	0.671901	0.710737	0.622407
462	H	0.697545	0.720648	0.608446
463	H	0.658434	0.725327	0.61686
464	H	0.701174	0.664385	0.633626
465	C	0.408335	0.058904	0.669767
466	C	0.370856	0.039912	0.649286
467	C	0.348868	0.998049	0.646011
468	C	0.365235	0.976078	0.665148
469	N	0.400619	0.997232	0.352508
470	N	0.420637	0.035279	0.354566
471	N	0.314633	0.980992	0.622585
472	H	0.304686	0.996723	0.608704
473	H	0.300039	0.952936	0.617017
474	H	0.360988	0.056606	0.633797
475	C	0.054124	0.661123	0.670223
476	C	0.035126	0.679307	0.649065
477	C	0.993269	0.659374	0.645773
478	C	0.971307	0.621374	0.665721
479	N	0.992466	0.607364	0.353524
480	N	0.030521	0.625409	0.355528
481	N	0.97619	0.676163	0.621666
482	H	0.991892	0.701705	0.607467
483	H	0.948094	0.66275	0.616384
484	H	0.051819	0.705552	0.632949
485	C	0.364369	0.412966	0.670156
486	C	0.346085	0.375702	0.649186
487	C	0.365975	0.353733	0.645891
488	C	0.404093	0.369861	0.665553
489	N	0.418217	0.405129	0.353165
490	N	0.400185	0.42515	0.355216
491	N	0.349018	0.319722	0.622045
492	H	0.323479	0.309919	0.607856
493	H	0.362488	0.305123	0.616554
494	H	0.319695	0.366012	0.633351
495	C	0.612383	0.971328	0.669854
496	C	0.64984	0.990303	0.649323
497	C	0.671824	0.032163	0.646008
498	C	0.655479	0.054146	0.665171
499	N	0.620112	0.03301	0.352568
500	N	0.600094	0.994964	0.354657
501	N	0.706041	0.049212	0.622548
502	H	0.715975	0.033473	0.608654
503	H	0.720631	0.077265	0.616963
504	H	0.659691	0.973599	0.633827
505	C	0.090417	0.436788	0.662352
506	N	0.120879	0.429379	0.660918
507	C	0.159394	0.458839	0.65961
508	N	0.166367	0.496653	0.660468
509	C	0.137319	0.505717	0.661756
510	N	0.10009	0.475158	0.662738
511	C	0.588667	0.673472	0.662171
512	N	0.596114	0.71136	0.660797
513	C	0.566677	0.720459	0.659624
514	N	0.528848	0.689644	0.660502
515	C	0.519739	0.651521	0.661702
516	N	0.550276	0.644819	0.66256
517	C	0.35198	0.935005	0.662144
518	N	0.314088	0.904569	0.660763
519	C	0.304974	0.866029	0.659617
520	N	0.335779	0.859	0.660502
521	C	0.373903	0.888003	0.661692
522	N	0.380617	0.925247	0.66254
523	C	0.930299	0.593444	0.662543
524	N	0.899835	0.600844	0.661028
525	C	0.861321	0.571381	0.659728
526	N	0.854355	0.53357	0.660633
527	C	0.883404	0.524512	0.66197
528	N	0.920632	0.555074	0.662945
529	C	0.431979	0.356718	0.662342
530	N	0.424544	0.318836	0.660948
531	C	0.453988	0.309752	0.659677
532	N	0.49181	0.340576	0.660529
533	C	0.500902	0.378693	0.661776
534	N	0.470363	0.385392	0.662724
535	C	0.668727	0.095214	0.662118
536	N	0.706619	0.125649	0.660747
537	C	0.715731	0.164191	0.659567
538	N	0.684924	0.171218	0.660428
539	C	0.646799	0.142211	0.661625
540	N	0.640086	0.104968	0.66249
541	C	0.436335	0.099709	0.668459
542	N	0.428661	0.129833	0.664437
543	C	0.45859	0.168104	0.66312
544	N	0.496374	0.175297	0.664896
545	C	0.505589	0.146442	0.668537
546	N	0.474647	0.109274	0.670186
547	C	0.668985	0.589112	0.668456
548	N	0.706769	0.596753	0.664383
549	C	0.715076	0.5668	0.663029
550	N	0.684467	0.529029	0.664833
551	C	0.646408	0.519848	0.668516
552	N	0.640217	0.55081	0.670206
553	C	0.925821	0.356448	0.668835
554	N	0.895676	0.318683	0.664611
555	C	0.857431	0.310399	0.663153
556	N	0.85029	0.34102	0.664997
557	C	0.879171	0.379063	0.668842
558	N	0.916323	0.385242	0.670611
559	C	0.584378	0.93052	0.668604
560	N	0.592038	0.900393	0.664491
561	C	0.562104	0.862126	0.663157
562	N	0.524324	0.854939	0.664997
563	C	0.515121	0.883798	0.668728
564	N	0.546069	0.920962	0.67037
565	C	0.351689	0.441058	0.668704
566	N	0.313915	0.433432	0.664571
567	C	0.305618	0.463385	0.663147
568	N	0.336239	0.501152	0.664923
569	C	0.374291	0.510322	0.668667
570	N	0.380479	0.479354	0.670424
571	C	0.094881	0.673772	0.668687
572	N	0.125029	0.71154	0.664518
573	C	0.163272	0.719821	0.663036
574	N	0.170407	0.689195	0.664826
575	C	0.141519	0.651148	0.66861
576	N	0.104369	0.644969	0.67042
577	C	0.266854	0.457395	0.994303
578	C	0.232104	0.420642	0.989788
579	C	0.19451	0.41783	0.98843
580	C	0.192844	0.453283	0.992432
581	N	0.228084	0.487057	0.663375
582	N	0.262227	0.489254	0.664233
583	N	0.162547	0.381457	0.982926
584	H	0.165226	0.358239	0.979826
585	H	0.136227	0.377275	0.980325
586	H	0.234246	0.395791	0.987086
587	C	0.568119	0.829367	0.994333
588	C	0.604876	0.831379	0.989808
589	C	0.607696	0.7966	0.98848
590	C	0.572246	0.759474	0.992479
591	N	0.538473	0.760938	0.663428
592	N	0.536266	0.792876	0.66428
593	N	0.644071	0.801014	0.98301
594	H	0.66729	0.826909	0.979933
595	H	0.648268	0.778875	0.980526
596	H	0.62972	0.858371	0.987103
597	C	0.196046	0.758582	0.994212
598	C	0.194048	0.793344	0.989818
599	C	0.228833	0.830941	0.988541
600	C	0.265954	0.832594	0.992442
601	N	0.264476	0.797338	0.663251
602	N	0.232531	0.763197	0.664068
603	N	0.224421	0.862917	0.983231
604	H	0.198527	0.860256	0.980228
605	H	0.246559	0.889262	0.980841
606	H	0.167058	0.791215	0.987196
607	C	0.753847	0.572805	0.994242
608	C	0.7886	0.609566	0.989804
609	C	0.8262	0.61239	0.988527
610	C	0.82787	0.576934	0.992503
611	N	0.792627	0.543155	0.663364
612	N	0.758479	0.540946	0.664166
613	N	0.858165	0.648778	0.983134
614	H	0.855494	0.672011	0.980174
615	H	0.884519	0.653007	0.980808
616	H	0.786453	0.634414	0.987109
617	C	0.452565	0.200858	0.994339
618	C	0.415803	0.198842	0.989828
619	C	0.412979	0.233619	0.988504
620	C	0.448428	0.270744	0.992516
621	N	0.482204	0.269285	0.663458
622	N	0.484415	0.237348	0.664293
623	N	0.376606	0.229206	0.983023
624	H	0.353388	0.203309	0.979926
625	H	0.372414	0.251344	0.980496
626	H	0.390962	0.171847	0.987109
627	C	0.824655	0.271637	0.994279
628	C	0.826656	0.236879	0.989824
629	C	0.79187	0.199285	0.988494
630	C	0.754748	0.197628	0.992419
631	N	0.756225	0.232878	0.663297
632	N	0.78817	0.267019	0.664152
633	N	0.79628	0.167315	0.983107
634	H	0.822175	0.16998	0.98008
635	H	0.77414	0.14098	0.98064
636	H	0.853646	0.239014	0.987186
637	C	0.14342	0.54444	0.663395
638	C	0.179921	0.578972	0.670484
639	C	0.182367	0.616307	0.673756
640	C	0.146979	0.617821	0.668379
641	N	0.113469	0.582901	0.994722
642	N	0.111549	0.548945	0.992586
643	N	0.218002	0.648163	0.683097
644	H	0.241142	0.645548	0.687686
645	H	0.221138	0.673766	0.689134
646	H	0.20461	0.57674	0.674667
647	C	0.481004	0.618918	0.663321
648	C	0.446498	0.620898	0.670564
649	C	0.409162	0.586013	0.673873
650	C	0.407619	0.549107	0.668379
651	N	0.442517	0.55051	0.994577
652	N	0.476475	0.582539	0.992412
653	N	0.377336	0.5898	0.683359
654	H	0.379908	0.61556	0.687743
655	H	0.351646	0.567341	0.689057
656	H	0.448756	0.647816	0.674885
657	C	0.406507	0.881874	0.663338
658	C	0.404539	0.845395	0.670605
659	C	0.439432	0.842957	0.673937
660	C	0.476331	0.878328	0.668453
661	N	0.474917	0.911816	0.994628
662	N	0.442883	0.91373	0.992439
663	N	0.435671	0.807352	0.683406
664	H	0.409925	0.784221	0.688058
665	H	0.458153	0.80424	0.689459
666	H	0.377622	0.820721	0.674872
667	C	0.877298	0.485786	0.663606
668	C	0.840787	0.451254	0.670635
669	C	0.83833	0.413913	0.67391
670	C	0.87372	0.412396	0.668587
671	N	0.907242	0.447319	0.994986
672	N	0.90917	0.481278	0.992855
673	N	0.80268	0.382054	0.683185
674	H	0.779535	0.384669	0.687733
675	H	0.799532	0.356442	0.689211
676	H	0.816093	0.453486	0.674775
677	C	0.539645	0.411287	0.663391
678	C	0.574156	0.409284	0.670501
679	C	0.611513	0.444155	0.673729
680	C	0.613064	0.481069	0.668302
681	N	0.578158	0.479684	0.994631
682	N	0.544184	0.447672	0.992529
683	N	0.643353	0.440352	0.683071
684	H	0.640719	0.414593	0.687686
685	H	0.668979	0.462815	0.689037
686	H	0.571897	0.382354	0.674718
687	C	0.614201	0.148351	0.663227
688	C	0.616172	0.184831	0.670494
689	C	0.581282	0.187276	0.673786
690	C	0.544384	0.151917	0.668252
691	N	0.545797	0.11843	0.994423
692	N	0.577826	0.116504	0.992271
693	N	0.585059	0.222882	0.683285
694	H	0.610811	0.24607	0.687696
695	H	0.562592	0.22611	0.688947
696	H	0.643087	0.209489	0.674848
697	C	0.966586	0.36912	0.003608
698	C	0.985566	0.35091	0.982463
699	C	0.027418	0.37082	0.979135
700	C	0.049405	0.408872	0.998945
701	N	0.028272	0.422927	0.686718
702	N	0.990219	0.404879	0.688799
703	N	0.044474	0.353954	0.955118
704	H	0.028737	0.328459	0.940836
705	H	0.072542	0.367447	0.949618
706	H	0.968864	0.324577	0.966522
707	C	0.656214	0.617136	0.003134
708	C	0.67466	0.654568	0.982544
709	C	0.654785	0.676554	0.979272
710	C	0.616498	0.660241	0.998536
711	N	0.602306	0.624903	0.685994
712	N	0.620331	0.604881	0.688042
713	N	0.671901	0.710737	0.955742
714	H	0.697545	0.720648	0.941781
715	H	0.658434	0.725327	0.950194
716	H	0.701174	0.664385	0.966961
717	C	0.408335	0.058904	0.003101
718	C	0.370856	0.039912	0.982621
719	C	0.348868	0.998049	0.979343
720	C	0.365235	0.976078	0.998479
721	N	0.400619	0.997232	0.685843
722	N	0.420637	0.035279	0.687897
723	N	0.314633	0.980992	0.955916
724	H	0.304686	0.996723	0.942036
725	H	0.300039	0.952936	0.950348
726	H	0.360988	0.056606	0.967128
727	C	0.054124	0.661123	0.003557
728	C	0.035126	0.679307	0.982396
729	C	0.993269	0.659374	0.979108
730	C	0.971307	0.621374	0.999052
731	N	0.992466	0.607364	0.686858
732	N	0.030521	0.625409	0.688863
733	N	0.97619	0.676163	0.954998
734	H	0.991892	0.701705	0.940799
735	H	0.948094	0.66275	0.949718
736	H	0.051819	0.705552	0.96628
737	C	0.364369	0.412966	0.003491
738	C	0.346085	0.375702	0.98252
739	C	0.365975	0.353733	0.979226
740	C	0.404093	0.369861	0.998888
741	N	0.418217	0.405129	0.686496
742	N	0.400185	0.42515	0.688551
743	N	0.349018	0.319722	0.955376
744	H	0.323479	0.309919	0.941188
745	H	0.362488	0.305123	0.949889
746	H	0.319695	0.366012	0.966686
747	C	0.612383	0.971328	0.003187
748	C	0.64984	0.990303	0.982658
749	C	0.671824	0.032163	0.979343
750	C	0.655479	0.054146	0.998503
751	N	0.620112	0.03301	0.685903
752	N	0.600094	0.994964	0.687991
753	N	0.706041	0.049212	0.955879
754	H	0.715975	0.033473	0.941989
755	H	0.720631	0.077265	0.950295
756	H	0.659691	0.973599	0.967162
