data_C288H216N36_2018-02-15_10:39:18
#******************************************
#
# CIF file created by Zeo++
# Zeo++ is an open source package to
# analyze microporous materials
#
#*******************************************

_cell_length_a		34.3901   
_cell_length_b		34.4005   
_cell_length_c		29.5954   
_cell_angle_alpha		90   
_cell_angle_beta		90   
_cell_angle_gamma		119.993   

_symmetry_space_group_name_H-M		'P1'
_symmetry_Int_Tables_number		1
_symmetry_cell_setting		Monoclinic

loop_
_symmetry_equiv_pos_as_xyz
'+x,+y,+z'

loop_
_atom_site_label
_atom_site_type_symbol
_atom_site_fract_x
_atom_site_fract_y
_atom_site_fract_z
1	C	0.054627	0.029787	0.010599
2	C	0.029217	0.051915	0.010763
3	C	0.981644	0.027926	0.010617
4	C	0.959482	0.980413	0.010366
5	C	0.983478	0.956834	0.010304
6	C	0.031019	0.982215	0.010366
7	H	0.925099	0.9626	0.01001
8	H	0.048844	0.965658	0.010014
9	H	0.045729	0.086287	0.01074
10	C	0.465434	0.197476	0.001878
11	C	0.488275	0.244417	0.007792
12	C	0.465363	0.268303	0.014997
13	C	0.417891	0.244049	0.015301
14	C	0.393149	0.1965	0.010226
15	C	0.418023	0.173962	0.003854
16	H	0.401367	0.261364	0.021209
17	H	0.401577	0.139986	0.998904
18	H	0.522736	0.261741	0.007064
19	C	0.814272	0.271048	0.001661
20	C	0.76738	0.246984	0.008018
21	C	0.743584	0.200256	0.015573
22	C	0.76789	0.177087	0.015849
23	C	0.81541	0.199838	0.010274
24	C	0.837825	0.247187	0.003493
25	H	0.75061	0.143316	0.022056
26	H	0.87174	0.264728	0.998117
27	H	0.750025	0.26409	0.007331
28	C	0.740742	0.546282	0.001313
29	C	0.764838	0.523462	0.007497
30	C	0.811599	0.546386	0.014941
31	C	0.834777	0.593849	0.015273
32	C	0.811982	0.618589	0.009903
33	C	0.764607	0.593681	0.003243
34	H	0.868584	0.610352	0.021361
35	H	0.747047	0.61007	0.998056
36	H	0.747728	0.489011	0.006784
37	C	0.344654	0.171958	0.01147
38	C	0.318645	0.189552	0.326752
39	N	0.273196	0.165112	0.327597
40	C	0.247736	0.123003	0.01135
41	C	0.272132	0.103394	0.030768
42	C	0.319869	0.128469	0.030481
43	H	0.337199	0.114796	0.045207
44	C	0.199279	0.102523	0.341624
45	C	0.174721	0.113806	0.310176
46	C	0.126986	0.089715	0.311965
47	C	0.102775	0.054736	0.343269
48	C	0.1286	0.045323	0.040206
49	N	0.174025	0.069129	0.038108
50	H	0.10916	0.096958	0.289093
51	H	0.113743	0.020977	0.064334
52	H	0.333269	0.220292	0.311511
53	C	0.196435	0.148673	0.274436
54	H	0.219017	0.141968	0.2543
55	H	0.215303	0.181773	0.289934
56	H	0.172327	0.149781	0.251189
57	C	0.250253	0.05725	0.050155
58	H	0.231863	0.055831	0.080711
59	H	0.274207	0.046533	0.059438
60	H	0.227218	0.033136	0.025511
61	C	0.840015	0.1759	0.011359
62	C	0.821889	0.131796	0.327777
63	N	0.846304	0.110748	0.32838
64	C	0.88896	0.128015	0.010849
65	C	0.909233	0.172511	0.028989
66	C	0.884126	0.195125	0.028998
67	H	0.898317	0.226504	0.042911
68	C	0.909458	0.100156	0.341262
69	C	0.89935	0.06559	0.30863
70	C	0.923152	0.041683	0.310601
71	C	0.956752	0.051138	0.343225
72	C	0.965048	0.085214	0.041283
73	N	0.941502	0.1071	0.03903
74	H	0.916804	0.017501	0.286926
75	H	0.988424	0.093671	0.066288
76	H	0.790695	0.11526	0.313509
77	C	0.866232	0.054407	0.271441
78	H	0.873815	0.084743	0.252758
79	H	0.83241	0.039349	0.285385
80	H	0.866357	0.030524	0.24719
81	C	0.956142	0.197232	0.046417
82	H	0.958634	0.181561	0.077475
83	H	0.967472	0.232347	0.054208
84	H	0.979135	0.196902	0.021211
85	C	0.835894	0.667096	0.011096
86	C	0.879785	0.693125	0.327014
87	N	0.900755	0.738567	0.327706
88	C	0.883693	0.763941	0.010729
89	C	0.839411	0.739601	0.029452
90	C	0.816838	0.691889	0.029342
91	H	0.785617	0.674607	0.043617
92	C	0.911541	0.812341	0.341053
93	C	0.946703	0.836876	0.308965
94	C	0.970422	0.884587	0.310844
95	C	0.960281	0.908723	0.342847
96	C	0.925668	0.882896	0.04039
97	N	0.903979	0.83748	0.038221
98	H	0.995035	0.902437	0.287555
99	H	0.916698	0.897755	0.065002
100	H	0.896178	0.678514	0.312319
101	C	0.958873	0.815076	0.272454
102	H	0.929024	0.79235	0.253103
103	H	0.973634	0.796341	0.287146
104	H	0.983351	0.839138	0.248642
105	C	0.814808	0.761582	0.047751
106	H	0.831041	0.779851	0.078595
107	H	0.779887	0.737691	0.056207
108	H	0.814468	0.784751	0.022783
109	C	0.491888	0.17647	0.329695
110	C	0.496897	0.152632	0.032501
111	N	0.533901	0.148164	0.034708
112	C	0.566865	0.163337	0.336171
113	C	0.562487	0.185593	0.297484
114	C	0.524324	0.190994	0.294867
115	H	0.522439	0.210071	0.269252
116	C	0.607334	0.163834	0.014491
117	C	0.634333	0.188512	0.052075
118	C	0.678463	0.195459	0.054762
119	C	0.696119	0.179187	0.021328
120	C	0.666655	0.15231	0.320151
121	N	0.624743	0.146777	0.317556
122	H	0.69967	0.216276	0.079306
123	H	0.678039	0.141576	0.29374
124	H	0.476323	0.143702	0.060104
125	C	0.619713	0.21079	0.085765
126	H	0.610791	0.233351	0.06865
127	H	0.645756	0.23057	0.110531
128	H	0.590604	0.185492	0.104302
129	C	0.597222	0.208369	0.261783
130	H	0.627894	0.207341	0.267561
131	H	0.606717	0.243732	0.259733
132	H	0.583495	0.192587	0.229195
133	C	0.835211	0.318469	0.329232
134	C	0.859301	0.347438	0.031866
135	N	0.863777	0.388907	0.033986
136	C	0.848392	0.406551	0.335508
137	C	0.82588	0.37976	0.296985
138	C	0.820448	0.336194	0.294454
139	H	0.801187	0.315114	0.268995
140	C	0.847953	0.446553	0.013785
141	C	0.82345	0.448986	0.05148
142	C	0.816528	0.486175	0.054178
143	C	0.832653	0.519971	0.020631
144	C	0.859368	0.517303	0.319323
145	N	0.864873	0.480912	0.316739
146	H	0.795819	0.486642	0.078805
147	H	0.869979	0.539337	0.29285
148	H	0.868411	0.335912	0.059432
149	C	0.801317	0.412197	0.085293
150	H	0.778663	0.380673	0.068299
151	H	0.781654	0.418534	0.110143
152	H	0.826707	0.408431	0.103717
153	C	0.802886	0.391578	0.261398
154	H	0.80399	0.423317	0.267114
155	H	0.767489	0.365731	0.259602
156	H	0.818448	0.393468	0.228714
157	C	0.6933	0.51981	0.32895
158	C	0.664359	0.514943	0.031618
159	N	0.622882	0.477966	0.033767
160	C	0.60519	0.444939	0.335294
161	C	0.631942	0.449215	0.296732
162	C	0.675521	0.487343	0.294164
163	H	0.696574	0.489163	0.268671
164	C	0.565196	0.404507	0.01361
165	C	0.562793	0.377633	0.051338
166	C	0.525613	0.333524	0.054073
167	C	0.491778	0.315771	0.020548
168	C	0.494442	0.345116	0.319208
169	N	0.530816	0.387014	0.316579
170	H	0.52516	0.312404	0.078751
171	H	0.472388	0.333657	0.292747
172	H	0.675922	0.535572	0.059183
173	C	0.599595	0.39234	0.085158
174	H	0.631135	0.401225	0.068173
175	H	0.59328	0.366372	0.11003
176	H	0.603332	0.421487	0.103558
177	C	0.620091	0.414412	0.261137
178	H	0.588369	0.383771	0.266887
179	H	0.645963	0.404897	0.259278
180	H	0.61814	0.428073	0.22847
181	C	0.054627	0.029787	0.343931
182	C	0.029217	0.051915	0.344097
183	C	0.981644	0.027926	0.343952
184	C	0.959482	0.980413	0.343698
185	C	0.983478	0.956834	0.343637
186	C	0.031019	0.982215	0.343698
187	H	0.925099	0.9626	0.343344
188	H	0.048844	0.965658	0.343347
189	H	0.045729	0.086287	0.344073
190	C	0.465434	0.197476	0.33521
191	C	0.488275	0.244417	0.341127
192	C	0.465363	0.268303	0.348331
193	C	0.417891	0.244049	0.348635
194	C	0.393149	0.1965	0.34356
195	C	0.418023	0.173962	0.337186
196	H	0.401367	0.261364	0.354545
197	H	0.401577	0.139986	0.332238
198	H	0.522736	0.261741	0.340397
199	C	0.814272	0.271048	0.334995
200	C	0.76738	0.246984	0.34135
201	C	0.743584	0.200256	0.348905
202	C	0.76789	0.177087	0.349182
203	C	0.81541	0.199838	0.343607
204	C	0.837825	0.247187	0.336825
205	H	0.75061	0.143316	0.355389
206	H	0.87174	0.264728	0.33145
207	H	0.750025	0.26409	0.340664
208	C	0.740742	0.546282	0.334647
209	C	0.764838	0.523462	0.34083
210	C	0.811599	0.546386	0.348273
211	C	0.834777	0.593849	0.348608
212	C	0.811982	0.618589	0.343235
213	C	0.764607	0.593681	0.336575
214	H	0.868584	0.610352	0.354693
215	H	0.747047	0.61007	0.33139
216	H	0.747728	0.489011	0.340117
217	C	0.344654	0.171958	0.344803
218	C	0.318645	0.189552	0.660085
219	N	0.273196	0.165112	0.66093
220	C	0.247736	0.123003	0.344685
221	C	0.272132	0.103394	0.364103
222	C	0.319869	0.128469	0.363816
223	H	0.337199	0.114796	0.378542
224	C	0.199279	0.102523	0.674959
225	C	0.174721	0.113806	0.643508
226	C	0.126986	0.089715	0.645299
227	C	0.102775	0.054736	0.676604
228	C	0.1286	0.045323	0.373541
229	N	0.174025	0.069129	0.371442
230	H	0.10916	0.096958	0.622427
231	H	0.113743	0.020977	0.397666
232	H	0.333269	0.220292	0.644846
233	C	0.196435	0.148673	0.607769
234	H	0.219017	0.141968	0.587635
235	H	0.215303	0.181773	0.623268
236	H	0.172327	0.149781	0.584523
237	C	0.250253	0.05725	0.383488
238	H	0.231863	0.055831	0.414044
239	H	0.274207	0.046533	0.392773
240	H	0.227218	0.033136	0.358846
241	C	0.840015	0.1759	0.344692
242	C	0.821889	0.131796	0.661112
243	N	0.846304	0.110748	0.661714
244	C	0.88896	0.128015	0.344181
245	C	0.909233	0.172511	0.362323
246	C	0.884126	0.195125	0.362333
247	H	0.898317	0.226504	0.376244
248	C	0.909458	0.100156	0.674597
249	C	0.89935	0.06559	0.641964
250	C	0.923152	0.041683	0.643934
251	C	0.956752	0.051138	0.67656
252	C	0.965048	0.085214	0.374619
253	N	0.941502	0.1071	0.372365
254	H	0.916804	0.017501	0.620261
255	H	0.988424	0.093671	0.399622
256	H	0.790695	0.11526	0.646843
257	C	0.866232	0.054407	0.604776
258	H	0.873815	0.084743	0.58609
259	H	0.83241	0.039349	0.618717
260	H	0.866357	0.030524	0.580522
261	C	0.956142	0.197232	0.379751
262	H	0.958634	0.181561	0.41081
263	H	0.967472	0.232347	0.387543
264	H	0.979135	0.196902	0.354545
265	C	0.835894	0.667096	0.344428
266	C	0.879785	0.693125	0.660349
267	N	0.900755	0.738567	0.661041
268	C	0.883693	0.763941	0.344063
269	C	0.839411	0.739601	0.362786
270	C	0.816838	0.691889	0.362674
271	H	0.785617	0.674607	0.37695
272	C	0.911541	0.812341	0.674388
273	C	0.946703	0.836876	0.642298
274	C	0.970422	0.884587	0.644177
275	C	0.960281	0.908723	0.676179
276	C	0.925668	0.882896	0.373723
277	N	0.903979	0.83748	0.371554
278	H	0.995035	0.902437	0.62089
279	H	0.916698	0.897755	0.398335
280	H	0.896178	0.678514	0.645654
281	C	0.958873	0.815076	0.605789
282	H	0.929024	0.79235	0.586435
283	H	0.973634	0.796341	0.620481
284	H	0.983351	0.839138	0.581975
285	C	0.814808	0.761582	0.381086
286	H	0.831041	0.779851	0.411928
287	H	0.779887	0.737691	0.38954
288	H	0.814468	0.784751	0.356116
289	C	0.491888	0.17647	0.663028
290	C	0.496897	0.152632	0.365833
291	N	0.533901	0.148164	0.368043
292	C	0.566865	0.163337	0.669505
293	C	0.562487	0.185593	0.630817
294	C	0.524324	0.190994	0.628202
295	H	0.522439	0.210071	0.602586
296	C	0.607334	0.163834	0.347824
297	C	0.634333	0.188512	0.385407
298	C	0.678463	0.195459	0.388097
299	C	0.696119	0.179187	0.354663
300	C	0.666655	0.15231	0.653486
301	N	0.624743	0.146777	0.650891
302	H	0.69967	0.216276	0.412638
303	H	0.678039	0.141576	0.627073
304	H	0.476323	0.143702	0.393439
305	C	0.619713	0.21079	0.419098
306	H	0.610791	0.233351	0.401984
307	H	0.645756	0.23057	0.443866
308	H	0.590604	0.185492	0.437635
309	C	0.597222	0.208369	0.595115
310	H	0.627894	0.207341	0.600893
311	H	0.606717	0.243732	0.593068
312	H	0.583495	0.192587	0.562529
313	C	0.835211	0.318469	0.662565
314	C	0.859301	0.347438	0.365198
315	N	0.863777	0.388907	0.36732
316	C	0.848392	0.406551	0.668843
317	C	0.82588	0.37976	0.63032
318	C	0.820448	0.336194	0.627786
319	H	0.801187	0.315114	0.602329
320	C	0.847953	0.446553	0.347118
321	C	0.82345	0.448986	0.384813
322	C	0.816528	0.486175	0.387512
323	C	0.832653	0.519971	0.353963
324	C	0.859368	0.517303	0.652655
325	N	0.864873	0.480912	0.650073
326	H	0.795819	0.486642	0.412138
327	H	0.869979	0.539337	0.626184
328	H	0.868411	0.335912	0.392767
329	C	0.801317	0.412197	0.418625
330	H	0.778663	0.380673	0.401633
331	H	0.781654	0.418534	0.443477
332	H	0.826707	0.408431	0.437051
333	C	0.802886	0.391578	0.59473
334	H	0.80399	0.423317	0.600447
335	H	0.767489	0.365731	0.592936
336	H	0.818448	0.393468	0.56205
337	C	0.6933	0.51981	0.662285
338	C	0.664359	0.514943	0.364952
339	N	0.622882	0.477966	0.367101
340	C	0.60519	0.444939	0.668627
341	C	0.631942	0.449215	0.630067
342	C	0.675521	0.487343	0.627499
343	H	0.696574	0.489163	0.602005
344	C	0.565196	0.404507	0.346942
345	C	0.562793	0.377633	0.384671
346	C	0.525613	0.333524	0.387408
347	C	0.491778	0.315771	0.353882
348	C	0.494442	0.345116	0.652543
349	N	0.530816	0.387014	0.649914
350	H	0.52516	0.312404	0.412084
351	H	0.472388	0.333657	0.62608
352	H	0.675922	0.535572	0.392517
353	C	0.599595	0.39234	0.41849
354	H	0.631135	0.401225	0.401508
355	H	0.59328	0.366372	0.443362
356	H	0.603332	0.421487	0.436892
357	C	0.620091	0.414412	0.59447
358	H	0.588369	0.383771	0.600221
359	H	0.645963	0.404897	0.592612
360	H	0.61814	0.428073	0.561803
361	C	0.054627	0.029787	0.677267
362	C	0.029217	0.051915	0.677429
363	C	0.981644	0.027926	0.677284
364	C	0.959482	0.980413	0.677034
365	C	0.983478	0.956834	0.676973
366	C	0.031019	0.982215	0.677034
367	H	0.925099	0.9626	0.676679
368	H	0.048844	0.965658	0.676682
369	H	0.045729	0.086287	0.677409
370	C	0.465434	0.197476	0.668542
371	C	0.488275	0.244417	0.674459
372	C	0.465363	0.268303	0.681666
373	C	0.417891	0.244049	0.681967
374	C	0.393149	0.1965	0.676892
375	C	0.418023	0.173962	0.670519
376	H	0.401367	0.261364	0.687876
377	H	0.401577	0.139986	0.665572
378	H	0.522736	0.261741	0.673732
379	C	0.814272	0.271048	0.668329
380	C	0.76738	0.246984	0.674685
381	C	0.743584	0.200256	0.68224
382	C	0.76789	0.177087	0.682517
383	C	0.81541	0.199838	0.676942
384	C	0.837825	0.247187	0.670157
385	H	0.75061	0.143316	0.688725
386	H	0.87174	0.264728	0.664785
387	H	0.750025	0.26409	0.673999
388	C	0.740742	0.546282	0.667981
389	C	0.764838	0.523462	0.674165
390	C	0.811599	0.546386	0.681609
391	C	0.834777	0.593849	0.68194
392	C	0.811982	0.618589	0.676571
393	C	0.764607	0.593681	0.669907
394	H	0.868584	0.610352	0.688028
395	H	0.747047	0.61007	0.664724
396	H	0.747728	0.489011	0.673452
397	C	0.344654	0.171958	0.678138
398	C	0.318645	0.189552	0.99342
399	N	0.273196	0.165112	0.994265
400	C	0.247736	0.123003	0.678017
401	C	0.272132	0.103394	0.697435
402	C	0.319869	0.128469	0.697148
403	H	0.337199	0.114796	0.711873
404	C	0.199279	0.102523	0.008291
405	C	0.174721	0.113806	0.976843
406	C	0.126986	0.089715	0.978634
407	C	0.102775	0.054736	0.009936
408	C	0.1286	0.045323	0.706873
409	N	0.174025	0.069129	0.704774
410	H	0.10916	0.096958	0.955759
411	H	0.113743	0.020977	0.731001
412	H	0.333269	0.220292	0.978178
413	C	0.196435	0.148673	0.941105
414	H	0.219017	0.141968	0.920966
415	H	0.215303	0.181773	0.9566
416	H	0.172327	0.149781	0.917858
417	C	0.250253	0.05725	0.716823
418	H	0.231863	0.055831	0.747379
419	H	0.274207	0.046533	0.726105
420	H	0.227218	0.033136	0.692178
421	C	0.840015	0.1759	0.678027
422	C	0.821889	0.131796	0.994444
423	N	0.846304	0.110748	0.995049
424	C	0.88896	0.128015	0.677517
425	C	0.909233	0.172511	0.695655
426	C	0.884126	0.195125	0.695665
427	H	0.898317	0.226504	0.709579
428	C	0.909458	0.100156	0.007928
429	C	0.89935	0.06559	0.975299
430	C	0.923152	0.041683	0.977269
431	C	0.956752	0.051138	0.009891
432	C	0.965048	0.085214	0.70795
433	N	0.941502	0.1071	0.705697
434	H	0.916804	0.017501	0.953593
435	H	0.988424	0.093671	0.732954
436	H	0.790695	0.11526	0.980178
437	C	0.866232	0.054407	0.938108
438	H	0.873815	0.084743	0.919426
439	H	0.83241	0.039349	0.952052
440	H	0.866357	0.030524	0.913857
441	C	0.956142	0.197232	0.713083
442	H	0.958634	0.181561	0.744142
443	H	0.967472	0.232347	0.720875
444	H	0.979135	0.196902	0.68788
445	C	0.835894	0.667096	0.677763
446	C	0.879785	0.693125	0.99368
447	N	0.900755	0.738567	0.994373
448	C	0.883693	0.763941	0.677395
449	C	0.839411	0.739601	0.696118
450	C	0.816838	0.691889	0.696009
451	H	0.785617	0.674607	0.710285
452	C	0.911541	0.812341	0.00772
453	C	0.946703	0.836876	0.975634
454	C	0.970422	0.884587	0.977512
455	C	0.960281	0.908723	0.009512
456	C	0.925668	0.882896	0.707058
457	N	0.903979	0.83748	0.704889
458	H	0.995035	0.902437	0.954222
459	H	0.916698	0.897755	0.73167
460	H	0.896178	0.678514	0.978986
461	C	0.958873	0.815076	0.939121
462	H	0.929024	0.79235	0.91977
463	H	0.973634	0.796341	0.953813
464	H	0.983351	0.839138	0.91531
465	C	0.814808	0.761582	0.714418
466	H	0.831041	0.779851	0.745264
467	H	0.779887	0.737691	0.722875
468	H	0.814468	0.784751	0.689451
469	C	0.491888	0.17647	0.996363
470	C	0.496897	0.152632	0.699169
471	N	0.533901	0.148164	0.701375
472	C	0.566865	0.163337	0.002837
473	C	0.562487	0.185593	0.964152
474	C	0.524324	0.190994	0.961533
475	H	0.522439	0.210071	0.935918
476	C	0.607334	0.163834	0.681159
477	C	0.634333	0.188512	0.718743
478	C	0.678463	0.195459	0.721429
479	C	0.696119	0.179187	0.687995
480	C	0.666655	0.15231	0.986818
481	N	0.624743	0.146777	0.984223
482	H	0.69967	0.216276	0.745973
483	H	0.678039	0.141576	0.960408
484	H	0.476323	0.143702	0.726771
485	C	0.619713	0.21079	0.752434
486	H	0.610791	0.233351	0.73532
487	H	0.645756	0.23057	0.777198
488	H	0.590604	0.185492	0.77097
489	C	0.597222	0.208369	0.928451
490	H	0.627894	0.207341	0.934229
491	H	0.606717	0.243732	0.9264
492	H	0.583495	0.192587	0.895861
493	C	0.835211	0.318469	0.9959
494	C	0.859301	0.347438	0.698533
495	N	0.863777	0.388907	0.700652
496	C	0.848392	0.406551	0.002175
497	C	0.82588	0.37976	0.963652
498	C	0.820448	0.336194	0.961121
499	H	0.801187	0.315114	0.935661
500	C	0.847953	0.446553	0.680453
501	C	0.82345	0.448986	0.718148
502	C	0.816528	0.486175	0.720844
503	C	0.832653	0.519971	0.687299
504	C	0.859368	0.517303	0.98599
505	N	0.864873	0.480912	0.983405
506	H	0.795819	0.486642	0.745473
507	H	0.869979	0.539337	0.959516
508	H	0.868411	0.335912	0.726099
509	C	0.801317	0.412197	0.751961
510	H	0.778663	0.380673	0.734968
511	H	0.781654	0.418534	0.776809
512	H	0.826707	0.408431	0.770386
513	C	0.802886	0.391578	0.928065
514	H	0.80399	0.423317	0.933783
515	H	0.767489	0.365731	0.926268
516	H	0.818448	0.393468	0.895381
517	C	0.6933	0.51981	0.995616
518	C	0.664359	0.514943	0.698287
519	N	0.622882	0.477966	0.700436
520	C	0.60519	0.444939	0.001962
521	C	0.631942	0.449215	0.963399
522	C	0.675521	0.487343	0.960831
523	H	0.696574	0.489163	0.935337
524	C	0.565196	0.404507	0.680277
525	C	0.562793	0.377633	0.718006
526	C	0.525613	0.333524	0.72074
527	C	0.491778	0.315771	0.687214
528	C	0.494442	0.345116	0.985875
529	N	0.530816	0.387014	0.983246
530	H	0.52516	0.312404	0.745419
531	H	0.472388	0.333657	0.959415
532	H	0.675922	0.535572	0.725852
533	C	0.599595	0.39234	0.751825
534	H	0.631135	0.401225	0.73484
535	H	0.59328	0.366372	0.776698
536	H	0.603332	0.421487	0.770224
537	C	0.620091	0.414412	0.927805
538	H	0.588369	0.383771	0.933553
539	H	0.645963	0.404897	0.925944
540	H	0.61814	0.428073	0.895138
