data_C288H198N18_2018-02-15_10:38:52
#******************************************
#
# CIF file created by Zeo++
# Zeo++ is an open source package to
# analyze microporous materials
#
#*******************************************

_cell_length_a		34.3235   
_cell_length_b		34.3339   
_cell_length_c		29.5382   
_cell_angle_alpha		90   
_cell_angle_beta		90   
_cell_angle_gamma		119.993   

_symmetry_space_group_name_H-M		'P1'
_symmetry_Int_Tables_number		1
_symmetry_cell_setting		Monoclinic

loop_
_symmetry_equiv_pos_as_xyz
'+x,+y,+z'

loop_
_atom_site_label
_atom_site_type_symbol
_atom_site_fract_x
_atom_site_fract_y
_atom_site_fract_z
1	C	0.923483	0.042665	0.036131
2	C	0.899788	0.066397	0.035851
3	H	0.913777	0.016782	0.058631
4	H	0.873219	0.056651	0.057491
5	C	0.129723	0.090718	0.036176
6	H	0.255697	0.099902	0.067102
7	H	0.11352	0.100401	0.058678
8	C	0.177148	0.114449	0.035878
9	C	0.464961	0.196646	0.014386
10	C	0.488621	0.243769	0.008868
11	C	0.417468	0.173757	0.013087
12	H	0.400099	0.139466	0.016224
13	H	0.52313	0.260513	0.009657
14	C	0.817906	0.272215	0.014315
15	C	0.770767	0.248787	0.008792
16	C	0.840762	0.24758	0.013016
17	H	0.875065	0.264477	0.01611
18	H	0.754049	0.266575	0.009551
19	C	0.742188	0.549415	0.014341
20	C	0.765646	0.52574	0.008771
21	C	0.766803	0.596893	0.013051
22	H	0.749878	0.614272	0.016175
23	H	0.747871	0.491243	0.009508
24	C	0.272856	0.121223	0.040953
25	C	0.320177	0.143999	0.04168
26	H	0.335972	0.13905	0.068598
27	H	0.193951	0.141009	0.057528
28	C	0.89315	0.155391	0.040931
29	C	0.870441	0.18	0.041648
30	H	0.914479	0.159534	0.067072
31	H	0.875418	0.200743	0.068568
32	C	0.85887	0.741461	0.040918
33	C	0.834298	0.694151	0.041637
34	H	0.854683	0.758625	0.067046
35	H	0.813535	0.678376	0.068543
36	C	0.971591	0.884522	0.036141
37	C	0.947875	0.837112	0.035866
38	H	0.99747	0.900711	0.058652
39	H	0.957639	0.820304	0.057507
40	C	0.490688	0.174777	0.019185
41	C	0.52135	0.186885	0.055552
42	C	0.55941	0.181062	0.05366
43	C	0.565545	0.160014	0.014705
44	C	0.624193	0.140363	0.034922
45	C	0.669356	0.150567	0.031447
46	H	0.605192	0.121068	0.061463
47	H	0.682021	0.138909	0.055953
48	C	0.839844	0.319821	0.018964
49	C	0.827638	0.338322	0.055315
50	C	0.833466	0.382198	0.053478
51	C	0.854466	0.409377	0.014505
52	C	0.874073	0.487618	0.034816
53	C	0.863856	0.522566	0.031364
54	H	0.893235	0.487847	0.061459
55	H	0.875368	0.546742	0.056009
56	C	0.694569	0.523719	0.019042
57	C	0.6761	0.493053	0.05541
58	C	0.632209	0.455025	0.053573
59	C	0.604977	0.448861	0.01464
60	C	0.526692	0.390276	0.034857
61	C	0.491703	0.345142	0.031368
62	H	0.526459	0.409205	0.061496
63	H	0.467525	0.332453	0.056014
64	H	0.518642	0.204955	0.081767
65	N	0.590026	0.199342	0.087849
66	H	0.618392	0.199674	0.087431
67	H	0.809655	0.317589	0.081598
68	N	0.815116	0.394466	0.087662
69	H	0.814591	0.422391	0.087156
70	H	0.696856	0.495793	0.081671
71	N	0.61989	0.424439	0.087782
72	H	0.591886	0.39606	0.087348
73	H	0.585274	0.214512	0.11333
74	H	0.799817	0.374463	0.113051
75	H	0.639874	0.429154	0.113198
76	C	0.056456	0.029828	0.006953
77	C	0.03204	0.053077	0.006933
78	C	0.984385	0.030271	0.006933
79	C	0.176721	0.065481	0.309752
80	C	0.129298	0.04154	0.310433
81	C	0.104758	0.053779	0.340132
82	H	0.193223	0.05589	0.287512
83	H	0.112777	0.015555	0.288113
84	C	0.960435	0.054622	0.340095
85	C	0.056456	0.029828	0.340285
86	C	0.03204	0.053077	0.340268
87	C	0.984385	0.030271	0.340264
88	C	0.176721	0.065481	0.643086
89	C	0.129298	0.04154	0.643766
90	C	0.104758	0.053779	0.673463
91	H	0.193223	0.05589	0.620847
92	H	0.112777	0.015555	0.621446
93	C	0.960435	0.054622	0.673429
94	C	0.923483	0.042665	0.369464
95	C	0.899788	0.066397	0.369183
96	H	0.913777	0.016782	0.391963
97	H	0.873219	0.056651	0.390826
98	C	0.056456	0.029828	0.673619
99	C	0.03204	0.053077	0.673602
100	C	0.984385	0.030271	0.673599
101	C	0.176721	0.065481	0.97642
102	C	0.129298	0.04154	0.9771
103	C	0.104758	0.053779	0.006797
104	H	0.193223	0.05589	0.954177
105	H	0.112777	0.015555	0.95478
106	C	0.960435	0.054622	0.006764
107	C	0.923483	0.042665	0.702798
108	C	0.899788	0.066397	0.702517
109	H	0.913777	0.016782	0.725298
110	H	0.873219	0.056651	0.724157
111	H	0.049407	0.087504	0.006875
112	H	0.863478	0.074548	0.263969
113	H	0.049407	0.087504	0.340207
114	C	0.129723	0.090718	0.369508
115	H	0.863478	0.074548	0.597301
116	H	0.049407	0.087504	0.673541
117	C	0.129723	0.090718	0.702842
118	H	0.863478	0.074548	0.930635
119	C	0.201292	0.102365	0.339059
120	C	0.911909	0.102627	0.339035
121	C	0.972714	0.091407	0.31041
122	H	0.998702	0.100851	0.288088
123	N	0.84953	0.093091	0.266347
124	H	0.82871	0.089909	0.242357
125	H	0.255697	0.099902	0.400434
126	C	0.201292	0.102365	0.67239
127	H	0.11352	0.100401	0.392011
128	C	0.911909	0.102627	0.67237
129	C	0.972714	0.091407	0.643746
130	H	0.998702	0.100851	0.621422
131	N	0.84953	0.093091	0.599681
132	H	0.82871	0.089909	0.575691
133	H	0.255697	0.099902	0.733768
134	C	0.201292	0.102365	0.005724
135	H	0.11352	0.100401	0.725345
136	C	0.911909	0.102627	0.005704
137	C	0.972714	0.091407	0.977077
138	H	0.998702	0.100851	0.954756
139	N	0.84953	0.093091	0.933015
140	H	0.82871	0.089909	0.909022
141	C	0.948798	0.114913	0.309731
142	C	0.177148	0.114449	0.369213
143	C	0.948798	0.114913	0.643065
144	C	0.177148	0.114449	0.702544
145	C	0.948798	0.114913	0.976399
146	C	0.961131	0.982618	0.006926
147	C	0.98395	0.957783	0.006943
148	C	0.031621	0.982191	0.00694
149	H	0.926693	0.965558	0.006862
150	H	0.048692	0.964825	0.006879
151	C	0.466405	0.268588	0.002464
152	C	0.418824	0.245001	0.002552
153	C	0.393744	0.197489	0.007512
154	H	0.402321	0.262723	0.998716
155	C	0.745892	0.201757	0.002447
156	C	0.769447	0.177734	0.002576
157	C	0.816976	0.20013	0.007498
158	H	0.751688	0.143514	0.998787
159	C	0.812687	0.547929	0.002417
160	C	0.836692	0.595497	0.002549
161	C	0.814264	0.620591	0.007505
162	H	0.870923	0.611975	0.99874
163	C	0.345614	0.173981	0.339953
164	C	0.321914	0.179964	0.303949
165	C	0.274192	0.156865	0.302124
166	C	0.249257	0.126985	0.338057
167	H	0.339875	0.201242	0.278051
168	N	0.254064	0.164736	0.26635
169	H	0.271678	0.185593	0.242381
170	H	0.221568	0.150789	0.263999
171	C	0.840445	0.175473	0.339936
172	C	0.834402	0.145771	0.303941
173	C	0.857449	0.121098	0.302118
174	C	0.88733	0.126011	0.338045
175	H	0.958418	0.141007	0.287497
176	H	0.813119	0.142472	0.278051
177	C	0.838893	0.668707	0.339949
178	C	0.868629	0.692389	0.303977
179	C	0.893265	0.740095	0.302152
180	C	0.888283	0.765038	0.338055
181	C	0.91164	0.81299	0.339052
182	C	0.899328	0.837566	0.309745
183	C	0.922811	0.884976	0.310432
184	C	0.959606	0.909495	0.340112
185	H	0.873226	0.821081	0.287516
186	H	0.913346	0.901501	0.288111
187	H	0.871978	0.674424	0.278102
188	N	0.921313	0.760202	0.266409
189	H	0.924508	0.742587	0.242408
190	H	0.939793	0.792691	0.264002
191	C	0.532984	0.145168	0.313015
192	C	0.496342	0.152749	0.314957
193	H	0.537622	0.131808	0.283897
194	H	0.47643	0.145948	0.28692
195	C	0.607006	0.161005	0.005877
196	C	0.69819	0.18094	0.998181
197	C	0.679651	0.198191	0.299903
198	C	0.634895	0.188572	0.303791
199	H	0.699752	0.221183	0.276119
200	H	0.624196	0.20514	0.282899
201	C	0.869389	0.391718	0.312838
202	C	0.861878	0.34753	0.314775
203	H	0.882745	0.409723	0.283727
204	H	0.86871	0.334444	0.286743
205	C	0.85344	0.449823	0.005734
206	C	0.833512	0.521069	0.998063
207	C	0.816353	0.485362	0.299715
208	C	0.825903	0.450192	0.303644
209	H	0.793409	0.482517	0.275886
210	H	0.809494	0.423034	0.282597
211	C	0.622667	0.481417	0.312942
212	C	0.666856	0.518113	0.314871
213	H	0.604659	0.476716	0.283819
214	H	0.679956	0.537907	0.286765
215	C	0.564533	0.407396	0.005833
216	C	0.493227	0.316267	0.998131
217	C	0.528993	0.334806	0.299815
218	C	0.56417	0.379524	0.303723
219	H	0.531874	0.314671	0.276066
220	H	0.5914	0.390188	0.282783
221	C	0.961131	0.982618	0.340261
222	C	0.98395	0.957783	0.340274
223	C	0.031621	0.982191	0.340271
224	H	0.926693	0.965558	0.340197
225	H	0.048692	0.964825	0.340213
226	C	0.464961	0.196646	0.347719
227	C	0.488621	0.243769	0.342201
228	C	0.466405	0.268588	0.335798
229	C	0.418824	0.245001	0.335883
230	C	0.393744	0.197489	0.340847
231	C	0.417468	0.173757	0.346419
232	H	0.402321	0.262723	0.332051
233	H	0.400099	0.139466	0.349557
234	H	0.52313	0.260513	0.34299
235	C	0.817906	0.272215	0.347648
236	C	0.770767	0.248787	0.342126
237	C	0.745892	0.201757	0.335781
238	C	0.769447	0.177734	0.335909
239	C	0.816976	0.20013	0.34083
240	C	0.840762	0.24758	0.346348
241	H	0.751688	0.143514	0.332121
242	H	0.875065	0.264477	0.349442
243	H	0.754049	0.266575	0.342885
244	C	0.742188	0.549415	0.347675
245	C	0.765646	0.52574	0.342106
246	C	0.812687	0.547929	0.335749
247	C	0.836692	0.595497	0.335882
248	C	0.814264	0.620591	0.34084
249	C	0.766803	0.596893	0.346385
250	H	0.870923	0.611975	0.332075
251	H	0.749878	0.614272	0.34951
252	H	0.747871	0.491243	0.342841
253	C	0.345614	0.173981	0.673287
254	C	0.321914	0.179964	0.637283
255	C	0.274192	0.156865	0.635458
256	C	0.249257	0.126985	0.671391
257	C	0.272856	0.121223	0.374285
258	C	0.320177	0.143999	0.375012
259	H	0.335972	0.13905	0.40193
260	H	0.339875	0.201242	0.611384
261	H	0.193951	0.141009	0.39086
262	N	0.254064	0.164736	0.599684
263	H	0.271678	0.185593	0.575715
264	H	0.221568	0.150789	0.597331
265	C	0.840445	0.175473	0.67327
266	C	0.834402	0.145771	0.637276
267	C	0.857449	0.121098	0.635451
268	C	0.88733	0.126011	0.671378
269	C	0.89315	0.155391	0.374264
270	C	0.870441	0.18	0.374982
271	H	0.914479	0.159534	0.400407
272	H	0.875418	0.200743	0.4019
273	H	0.958418	0.141007	0.62083
274	H	0.813119	0.142472	0.611384
275	C	0.838893	0.668707	0.673284
276	C	0.868629	0.692389	0.63731
277	C	0.893265	0.740095	0.635485
278	C	0.888283	0.765038	0.671388
279	C	0.85887	0.741461	0.374251
280	C	0.834298	0.694151	0.374968
281	H	0.854683	0.758625	0.40038
282	H	0.813535	0.678376	0.401876
283	C	0.91164	0.81299	0.672387
284	C	0.899328	0.837566	0.643079
285	C	0.922811	0.884976	0.643766
286	C	0.959606	0.909495	0.673446
287	C	0.971591	0.884522	0.369474
288	C	0.947875	0.837112	0.3692
289	H	0.873226	0.821081	0.62085
290	H	0.913346	0.901501	0.621446
291	H	0.99747	0.900711	0.391987
292	H	0.871978	0.674424	0.611435
293	H	0.957639	0.820304	0.390839
294	N	0.921313	0.760202	0.599742
295	H	0.924508	0.742587	0.575742
296	H	0.939793	0.792691	0.597335
297	C	0.490688	0.174777	0.35252
298	C	0.52135	0.186885	0.388886
299	C	0.55941	0.181062	0.386994
300	C	0.565545	0.160014	0.348037
301	C	0.532984	0.145168	0.646349
302	C	0.496342	0.152749	0.648289
303	H	0.537622	0.131808	0.617231
304	H	0.47643	0.145948	0.620254
305	C	0.607006	0.161005	0.339208
306	C	0.624193	0.140363	0.368255
307	C	0.669356	0.150567	0.364782
308	C	0.69819	0.18094	0.331514
309	C	0.679651	0.198191	0.633237
310	C	0.634895	0.188572	0.637124
311	H	0.605192	0.121068	0.394797
312	H	0.682021	0.138909	0.389286
313	H	0.699752	0.221183	0.609451
314	H	0.518642	0.204955	0.4151
315	H	0.624196	0.20514	0.616232
316	N	0.590026	0.199342	0.421183
317	H	0.585274	0.214512	0.446662
318	H	0.618392	0.199674	0.420763
319	C	0.839844	0.319821	0.352296
320	C	0.827638	0.338322	0.388649
321	C	0.833466	0.382198	0.386811
322	C	0.854466	0.409377	0.347838
323	C	0.869389	0.391718	0.646173
324	C	0.861878	0.34753	0.64811
325	H	0.882745	0.409723	0.617062
326	H	0.86871	0.334444	0.620078
327	C	0.85344	0.449823	0.339069
328	C	0.874073	0.487618	0.36815
329	C	0.863856	0.522566	0.364697
330	C	0.833512	0.521069	0.331397
331	C	0.816353	0.485362	0.633048
332	C	0.825903	0.450192	0.636978
333	H	0.893235	0.487847	0.394794
334	H	0.875368	0.546742	0.389343
335	H	0.793409	0.482517	0.609221
336	H	0.809655	0.317589	0.41493
337	H	0.809494	0.423034	0.615931
338	N	0.815116	0.394466	0.420997
339	H	0.799817	0.374463	0.446384
340	H	0.814591	0.422391	0.420489
341	C	0.694569	0.523719	0.352374
342	C	0.6761	0.493053	0.388744
343	C	0.632209	0.455025	0.386906
344	C	0.604977	0.448861	0.347973
345	C	0.622667	0.481417	0.646275
346	C	0.666856	0.518113	0.648204
347	H	0.604659	0.476716	0.617153
348	H	0.679956	0.537907	0.620098
349	C	0.564533	0.407396	0.339164
350	C	0.526692	0.390276	0.368191
351	C	0.491703	0.345142	0.3647
352	C	0.493227	0.316267	0.331465
353	C	0.528993	0.334806	0.633149
354	C	0.56417	0.379524	0.637056
355	H	0.526459	0.409205	0.394827
356	H	0.467525	0.332453	0.389346
357	H	0.531874	0.314671	0.6094
358	H	0.696856	0.495793	0.415005
359	H	0.5914	0.390188	0.616117
360	N	0.61989	0.424439	0.421115
361	H	0.639874	0.429154	0.446533
362	H	0.591886	0.39606	0.420682
363	C	0.961131	0.982618	0.673592
364	C	0.98395	0.957783	0.673609
365	C	0.031621	0.982191	0.673605
366	H	0.926693	0.965558	0.673527
367	H	0.048692	0.964825	0.673544
368	C	0.464961	0.196646	0.681053
369	C	0.488621	0.243769	0.675535
370	C	0.466405	0.268588	0.669133
371	C	0.418824	0.245001	0.669218
372	C	0.393744	0.197489	0.674181
373	C	0.417468	0.173757	0.679753
374	H	0.402321	0.262723	0.665385
375	H	0.400099	0.139466	0.682892
376	H	0.52313	0.260513	0.676324
377	C	0.817906	0.272215	0.680982
378	C	0.770767	0.248787	0.675461
379	C	0.745892	0.201757	0.669116
380	C	0.769447	0.177734	0.669241
381	C	0.816976	0.20013	0.674164
382	C	0.840762	0.24758	0.679682
383	H	0.751688	0.143514	0.665453
384	H	0.875065	0.264477	0.682776
385	H	0.754049	0.266575	0.676219
386	C	0.742188	0.549415	0.681009
387	C	0.765646	0.52574	0.675437
388	C	0.812687	0.547929	0.669082
389	C	0.836692	0.595497	0.669214
390	C	0.814264	0.620591	0.674174
391	C	0.766803	0.596893	0.679719
392	H	0.870923	0.611975	0.665409
393	H	0.749878	0.614272	0.682841
394	H	0.747871	0.491243	0.676175
395	C	0.345614	0.173981	0.006621
396	C	0.321914	0.179964	0.970617
397	C	0.274192	0.156865	0.968792
398	C	0.249257	0.126985	0.004725
399	C	0.272856	0.121223	0.707619
400	C	0.320177	0.143999	0.708347
401	H	0.335972	0.13905	0.735264
402	H	0.339875	0.201242	0.944718
403	H	0.193951	0.141009	0.724194
404	N	0.254064	0.164736	0.933018
405	H	0.271678	0.185593	0.909049
406	H	0.221568	0.150789	0.930665
407	C	0.840445	0.175473	0.006604
408	C	0.834402	0.145771	0.970607
409	C	0.857449	0.121098	0.968786
410	C	0.88733	0.126011	0.004712
411	C	0.89315	0.155391	0.707599
412	C	0.870441	0.18	0.708316
413	H	0.914479	0.159534	0.733741
414	H	0.875418	0.200743	0.735234
415	H	0.958418	0.141007	0.954164
416	H	0.813119	0.142472	0.944718
417	C	0.838893	0.668707	0.006618
418	C	0.868629	0.692389	0.970644
419	C	0.893265	0.740095	0.968819
420	C	0.888283	0.765038	0.004722
421	C	0.85887	0.741461	0.707585
422	C	0.834298	0.694151	0.708303
423	H	0.854683	0.758625	0.733714
424	H	0.813535	0.678376	0.73521
425	C	0.91164	0.81299	0.005717
426	C	0.899328	0.837566	0.976413
427	C	0.922811	0.884976	0.9771
428	C	0.959606	0.909495	0.00678
429	C	0.971591	0.884522	0.702808
430	C	0.947875	0.837112	0.702534
431	H	0.873226	0.821081	0.954184
432	H	0.913346	0.901501	0.954777
433	H	0.99747	0.900711	0.725318
434	H	0.871978	0.674424	0.944769
435	H	0.957639	0.820304	0.724174
436	N	0.921313	0.760202	0.933076
437	H	0.924508	0.742587	0.909077
438	H	0.939793	0.792691	0.930669
439	C	0.490688	0.174777	0.68585
440	C	0.52135	0.186885	0.72222
441	C	0.55941	0.181062	0.720328
442	C	0.565545	0.160014	0.681372
443	C	0.532984	0.145168	0.979683
444	C	0.496342	0.152749	0.981623
445	H	0.537622	0.131808	0.950565
446	H	0.47643	0.145948	0.953588
447	C	0.607006	0.161005	0.672542
448	C	0.624193	0.140363	0.701589
449	C	0.669356	0.150567	0.698116
450	C	0.69819	0.18094	0.664847
451	C	0.679651	0.198191	0.966572
452	C	0.634895	0.188572	0.970458
453	H	0.605192	0.121068	0.728131
454	H	0.682021	0.138909	0.72262
455	H	0.699752	0.221183	0.942785
456	H	0.518642	0.204955	0.748434
457	H	0.624196	0.20514	0.949566
458	N	0.590026	0.199342	0.754517
459	H	0.585274	0.214512	0.779996
460	H	0.618392	0.199674	0.754098
461	C	0.839844	0.319821	0.68563
462	C	0.827638	0.338322	0.721983
463	C	0.833466	0.382198	0.720145
464	C	0.854466	0.409377	0.681172
465	C	0.869389	0.391718	0.979504
466	C	0.861878	0.34753	0.981444
467	H	0.882745	0.409723	0.950392
468	H	0.86871	0.334444	0.953409
469	C	0.85344	0.449823	0.672403
470	C	0.874073	0.487618	0.701484
471	C	0.863856	0.522566	0.698031
472	C	0.833512	0.521069	0.664732
473	C	0.816353	0.485362	0.966382
474	C	0.825903	0.450192	0.970312
475	H	0.893235	0.487847	0.728124
476	H	0.875368	0.546742	0.722677
477	H	0.793409	0.482517	0.942552
478	H	0.809655	0.317589	0.748265
479	H	0.809494	0.423034	0.949265
480	N	0.815116	0.394466	0.754328
481	H	0.799817	0.374463	0.779719
482	H	0.814591	0.422391	0.753823
483	C	0.694569	0.523719	0.685708
484	C	0.6761	0.493053	0.722078
485	C	0.632209	0.455025	0.72024
486	C	0.604977	0.448861	0.681307
487	C	0.622667	0.481417	0.979609
488	C	0.666856	0.518113	0.981539
489	H	0.604659	0.476716	0.950487
490	H	0.679956	0.537907	0.953433
491	C	0.564533	0.407396	0.672498
492	C	0.526692	0.390276	0.701525
493	C	0.491703	0.345142	0.698035
494	C	0.493227	0.316267	0.6648
495	C	0.528993	0.334806	0.966483
496	C	0.56417	0.379524	0.97039
497	H	0.526459	0.409205	0.728162
498	H	0.467525	0.332453	0.722681
499	H	0.531874	0.314671	0.942735
500	H	0.696856	0.495793	0.748339
501	H	0.5914	0.390188	0.949451
502	N	0.61989	0.424439	0.75445
503	H	0.639874	0.429154	0.779864
504	H	0.591886	0.39606	0.754016
