data_C288H144N72O72_2018-02-15_10:38:35
#******************************************
#
# CIF file created by Zeo++
# Zeo++ is an open source package to
# analyze microporous materials
#
#*******************************************

_cell_length_a		29.0117   
_cell_length_b		29.0117   
_cell_length_c		29.4318   
_cell_angle_alpha		90   
_cell_angle_beta		90   
_cell_angle_gamma		120   

_symmetry_space_group_name_H-M		'P1'
_symmetry_Int_Tables_number		1
_symmetry_cell_setting		Monoclinic

loop_
_symmetry_equiv_pos_as_xyz
'+x,+y,+z'

loop_
_atom_site_label
_atom_site_type_symbol
_atom_site_fract_x
_atom_site_fract_y
_atom_site_fract_z
1	C	0.042603	0.273716	0.051711
2	C	0.070993	0.287911	0.010151
3	O	0.071106	0.287969	0.091551
4	H	0.047659	0.27624	0.118295
5	C	0.042604	0.773715	0.051711
6	C	0.070994	0.787912	0.010151
7	O	0.071106	0.787968	0.091551
8	H	0.047659	0.776239	0.118295
9	C	0.250417	0.273713	0.051711
10	C	0.236222	0.287908	0.010151
11	O	0.236163	0.287962	0.091551
12	H	0.247893	0.276245	0.118295
13	C	0.250419	0.481531	0.05171
14	C	0.236225	0.453141	0.01015
15	O	0.236164	0.453025	0.09155
16	H	0.247892	0.476472	0.118294
17	C	0.250419	0.773715	0.051711
18	C	0.236223	0.787908	0.010151
19	O	0.236165	0.787964	0.091551
20	H	0.247895	0.776247	0.118295
21	C	0.250419	0.981529	0.05171
22	C	0.236225	0.953139	0.01015
23	O	0.236167	0.953028	0.09155
24	H	0.247894	0.976475	0.118294
25	N	0.154184	0.36995	0.009541
26	C	0.126862	0.315845	0.009381
27	N	0.154182	0.28906	0.009544
28	C	0.042729	0.273778	0.302007
29	H	0.06328	0.284053	0.271959
30	N	0.154184	0.36995	0.342874
31	C	0.126862	0.315845	0.342714
32	N	0.154182	0.28906	0.342877
33	C	0.042603	0.273716	0.385043
34	C	0.070993	0.287911	0.343486
35	C	0.042729	0.273778	0.63534
36	H	0.06328	0.284053	0.605291
37	O	0.071106	0.287969	0.424884
38	H	0.047659	0.27624	0.451627
39	N	0.154184	0.36995	0.676207
40	C	0.126862	0.315845	0.676048
41	N	0.154182	0.28906	0.676211
42	C	0.042603	0.273716	0.718376
43	C	0.070993	0.287911	0.676819
44	C	0.042729	0.273778	0.968673
45	H	0.06328	0.284053	0.938624
46	O	0.071106	0.287969	0.758217
47	H	0.047659	0.27624	0.784961
48	N	0.154185	0.869951	0.009541
49	C	0.126863	0.815845	0.009381
50	N	0.154183	0.789059	0.009544
51	C	0.04273	0.773779	0.302007
52	H	0.06328	0.784052	0.271959
53	N	0.154185	0.869951	0.342874
54	C	0.126863	0.815845	0.342714
55	N	0.154183	0.789059	0.342877
56	C	0.042604	0.773715	0.385043
57	C	0.070994	0.787912	0.343486
58	C	0.04273	0.773779	0.63534
59	H	0.06328	0.784052	0.605291
60	O	0.071106	0.787968	0.424884
61	H	0.047659	0.776239	0.451627
62	N	0.154185	0.869951	0.676207
63	C	0.126863	0.815845	0.676048
64	N	0.154183	0.789059	0.676211
65	C	0.042604	0.773715	0.718376
66	C	0.070994	0.787912	0.676819
67	C	0.04273	0.773779	0.968673
68	H	0.06328	0.784052	0.938624
69	O	0.071106	0.787968	0.758217
70	H	0.047659	0.776239	0.784961
71	C	0.208289	0.39727	0.009378
72	C	0.208287	0.315844	0.009381
73	C	0.208289	0.39727	0.342711
74	C	0.208287	0.315844	0.342714
75	C	0.208289	0.39727	0.676044
76	C	0.208287	0.315844	0.676048
77	C	0.208289	0.89727	0.009378
78	C	0.208289	0.815845	0.009381
79	C	0.208289	0.89727	0.342711
80	C	0.208289	0.815845	0.342714
81	C	0.208289	0.89727	0.676044
82	C	0.208289	0.815845	0.676048
83	N	0.235072	0.369949	0.009541
84	C	0.250355	0.273778	0.302007
85	H	0.24008	0.284054	0.271959
86	C	0.250356	0.481403	0.302007
87	H	0.240082	0.460854	0.271958
88	N	0.235072	0.369949	0.342874
89	C	0.250417	0.273713	0.385043
90	C	0.236222	0.287908	0.343486
91	C	0.250355	0.273778	0.63534
92	H	0.24008	0.284054	0.605291
93	O	0.236163	0.287962	0.424884
94	H	0.247893	0.276245	0.451627
95	C	0.250419	0.481531	0.385043
96	C	0.236225	0.453141	0.343482
97	C	0.250356	0.481403	0.63534
98	H	0.240082	0.460854	0.605291
99	O	0.236164	0.453025	0.424884
100	H	0.247892	0.476472	0.451627
101	N	0.235072	0.369949	0.676207
102	C	0.250417	0.273713	0.718376
103	C	0.236222	0.287908	0.676819
104	C	0.250355	0.273778	0.968673
105	H	0.24008	0.284054	0.938624
106	O	0.236163	0.287962	0.758217
107	H	0.247893	0.276245	0.784961
108	C	0.250419	0.481531	0.718376
109	C	0.236225	0.453141	0.676816
110	C	0.250356	0.481403	0.968673
111	H	0.240082	0.460854	0.938624
112	O	0.236164	0.453025	0.758217
113	H	0.247892	0.476472	0.784961
114	N	0.235072	0.869947	0.009541
115	C	0.250357	0.773779	0.302007
116	H	0.24008	0.784052	0.271959
117	C	0.250358	0.981406	0.302007
118	H	0.240082	0.960853	0.271958
119	N	0.235072	0.869947	0.342874
120	C	0.250419	0.773715	0.385043
121	C	0.236223	0.787908	0.343486
122	C	0.250357	0.773779	0.63534
123	H	0.24008	0.784052	0.605291
124	O	0.236165	0.787964	0.424884
125	H	0.247895	0.776247	0.451627
126	C	0.250419	0.981529	0.385043
127	C	0.236225	0.953139	0.343482
128	C	0.250358	0.981406	0.63534
129	H	0.240082	0.960853	0.605291
130	O	0.236167	0.953028	0.424884
131	H	0.247894	0.976475	0.451627
132	N	0.235072	0.869947	0.676207
133	C	0.250419	0.773715	0.718376
134	C	0.236223	0.787908	0.676819
135	C	0.250357	0.773779	0.968673
136	H	0.24008	0.784052	0.938624
137	O	0.236165	0.787964	0.758217
138	H	0.247895	0.776247	0.784961
139	C	0.250419	0.981529	0.718376
140	C	0.236225	0.953139	0.676816
141	C	0.250358	0.981406	0.968673
142	H	0.240082	0.960853	0.938624
143	O	0.236167	0.953028	0.758217
144	H	0.247894	0.976475	0.784961
145	N	0.293887	0.149357	0.009875
146	C	0.278605	0.245527	0.050742
147	H	0.28888	0.235251	0.080791
148	C	0.278604	0.037903	0.050742
149	H	0.288879	0.058454	0.080791
150	N	0.293888	0.649357	0.009875
151	C	0.278606	0.745528	0.050742
152	H	0.288881	0.735251	0.080791
153	C	0.278606	0.537905	0.050742
154	H	0.28888	0.558455	0.080791
155	C	0.278543	0.245592	0.301039
156	C	0.292738	0.231397	0.342599
157	O	0.292798	0.231342	0.261199
158	H	0.281068	0.243059	0.234456
159	C	0.278542	0.037778	0.301039
160	C	0.292736	0.066167	0.342599
161	O	0.292796	0.066283	0.261199
162	H	0.281069	0.042836	0.234455
163	N	0.293887	0.149357	0.343207
164	C	0.278605	0.245527	0.384074
165	C	0.278543	0.245592	0.634372
166	C	0.292738	0.231397	0.675932
167	H	0.28888	0.235251	0.414124
168	O	0.292798	0.231342	0.594534
169	H	0.281068	0.243059	0.567787
170	C	0.278604	0.037903	0.384074
171	C	0.278542	0.037778	0.634372
172	C	0.292736	0.066167	0.675932
173	H	0.288879	0.058454	0.414124
174	O	0.292796	0.066283	0.594534
175	H	0.281069	0.042836	0.567787
176	N	0.293887	0.149357	0.67654
177	C	0.278605	0.245527	0.717408
178	C	0.278543	0.245592	0.967705
179	C	0.292738	0.231397	0.009266
180	H	0.28888	0.235251	0.747457
181	O	0.292798	0.231342	0.927867
182	H	0.281068	0.243059	0.901121
183	C	0.278604	0.037903	0.717408
184	C	0.278542	0.037778	0.967705
185	C	0.292736	0.066167	0.009266
186	H	0.288879	0.058454	0.747457
187	O	0.292796	0.066283	0.927867
188	H	0.281069	0.042836	0.901121
189	C	0.278544	0.745592	0.301039
190	C	0.29274	0.731399	0.342599
191	O	0.292799	0.731343	0.261199
192	H	0.281069	0.74306	0.234456
193	C	0.278543	0.537778	0.301039
194	C	0.292737	0.566168	0.342599
195	O	0.292797	0.566283	0.261199
196	H	0.28107	0.542837	0.234455
197	N	0.293888	0.649357	0.343207
198	C	0.278606	0.745528	0.384074
199	C	0.278544	0.745592	0.634372
200	C	0.29274	0.731399	0.675932
201	H	0.288881	0.735251	0.414124
202	O	0.292799	0.731343	0.594534
203	H	0.281069	0.74306	0.567787
204	C	0.278606	0.537905	0.384074
205	C	0.278543	0.537778	0.634372
206	C	0.292737	0.566168	0.675932
207	H	0.28888	0.558455	0.414124
208	O	0.292797	0.566283	0.594534
209	H	0.28107	0.542837	0.567787
210	N	0.293888	0.649357	0.67654
211	C	0.278606	0.745528	0.717408
212	C	0.278544	0.745592	0.967705
213	C	0.29274	0.731399	0.009266
214	H	0.288881	0.735251	0.747457
215	O	0.292799	0.731343	0.927867
216	H	0.281069	0.74306	0.901121
217	C	0.278606	0.537905	0.717408
218	C	0.278543	0.537778	0.967705
219	C	0.292737	0.566168	0.009266
220	H	0.28888	0.558455	0.747457
221	O	0.292797	0.566283	0.927867
222	H	0.28107	0.542837	0.901121
223	C	0.320671	0.122036	0.010037
224	N	0.374776	0.149356	0.009875
225	C	0.402097	0.203461	0.010037
226	N	0.374777	0.230246	0.009875
227	C	0.320672	0.203462	0.010037
228	C	0.486228	0.245527	0.050742
229	H	0.465679	0.235252	0.080791
230	C	0.320672	0.622037	0.010037
231	N	0.374777	0.649357	0.009875
232	C	0.402098	0.703462	0.010037
233	N	0.374777	0.730244	0.009875
234	C	0.320673	0.703462	0.010037
235	C	0.48623	0.745528	0.050742
236	H	0.465678	0.735251	0.080791
237	C	0.820671	0.122036	0.010037
238	N	0.874776	0.149356	0.009875
239	C	0.902097	0.203461	0.010037
240	N	0.874779	0.230246	0.009875
241	C	0.820672	0.203462	0.010037
242	N	0.793889	0.149357	0.009875
243	C	0.778606	0.245527	0.050742
244	C	0.750416	0.273713	0.051711
245	C	0.736223	0.287908	0.010151
246	O	0.736163	0.287962	0.091551
247	H	0.788879	0.235251	0.080791
248	H	0.747894	0.276245	0.118295
249	C	0.778604	0.037903	0.050742
250	C	0.750419	0.481531	0.05171
251	C	0.736224	0.453141	0.01015
252	O	0.736163	0.453025	0.09155
253	H	0.788879	0.058454	0.080791
254	H	0.747893	0.476472	0.118294
255	C	0.986229	0.245527	0.050742
256	C	0.542605	0.273716	0.051711
257	C	0.570994	0.287911	0.010151
258	O	0.571106	0.287969	0.091551
259	H	0.965677	0.235252	0.080791
260	H	0.547659	0.27624	0.118295
261	C	0.820673	0.622037	0.010037
262	N	0.874778	0.649357	0.009875
263	C	0.9021	0.703462	0.010037
264	N	0.874777	0.730244	0.009875
265	C	0.820674	0.703462	0.010037
266	N	0.793887	0.649357	0.009875
267	C	0.778605	0.745528	0.050742
268	C	0.750419	0.773715	0.051711
269	C	0.736223	0.787908	0.010151
270	O	0.736165	0.787964	0.091551
271	H	0.788881	0.735251	0.080791
272	H	0.747893	0.776247	0.118295
273	C	0.778607	0.537905	0.050742
274	C	0.750419	0.981529	0.05171
275	C	0.736225	0.953139	0.01015
276	O	0.736167	0.953028	0.09155
277	H	0.788881	0.558455	0.080791
278	H	0.747894	0.976475	0.118294
279	C	0.986232	0.745528	0.050742
280	C	0.542604	0.773715	0.051711
281	C	0.570995	0.787912	0.010151
282	O	0.571106	0.787968	0.091551
283	H	0.965679	0.735251	0.080791
284	H	0.547659	0.776239	0.118295
285	C	0.486355	0.24559	0.301039
286	C	0.457966	0.231395	0.342599
287	O	0.457851	0.231335	0.261199
288	H	0.481298	0.243064	0.234456
289	C	0.320671	0.122036	0.34337
290	N	0.374776	0.149356	0.343207
291	C	0.402097	0.203461	0.34337
292	N	0.374777	0.230246	0.343207
293	C	0.320672	0.203462	0.34337
294	C	0.486228	0.245527	0.384074
295	C	0.486355	0.24559	0.634372
296	C	0.457966	0.231395	0.675932
297	H	0.465679	0.235252	0.414124
298	O	0.457851	0.231335	0.594534
299	H	0.481298	0.243064	0.567787
300	C	0.320671	0.122036	0.676703
301	N	0.374776	0.149356	0.67654
302	C	0.402097	0.203461	0.676703
303	N	0.374777	0.230246	0.67654
304	C	0.320672	0.203462	0.676703
305	C	0.486228	0.245527	0.717408
306	C	0.486355	0.24559	0.967705
307	C	0.457966	0.231395	0.009266
308	H	0.465679	0.235252	0.747457
309	O	0.457851	0.231335	0.927867
310	H	0.481298	0.243064	0.901121
311	C	0.486355	0.745588	0.301039
312	C	0.457967	0.731395	0.342599
313	O	0.457852	0.731335	0.261199
314	H	0.481299	0.743064	0.234456
315	C	0.320672	0.622037	0.34337
316	N	0.374777	0.649357	0.343207
317	C	0.402098	0.703462	0.34337
318	N	0.374777	0.730244	0.343207
319	C	0.320673	0.703462	0.34337
320	C	0.48623	0.745528	0.384074
321	C	0.486355	0.745588	0.634372
322	C	0.457967	0.731395	0.675932
323	H	0.465678	0.735251	0.414124
324	O	0.457852	0.731335	0.594534
325	H	0.481299	0.743064	0.567787
326	C	0.320672	0.622037	0.676703
327	N	0.374777	0.649357	0.67654
328	C	0.402098	0.703462	0.676703
329	N	0.374777	0.730244	0.67654
330	C	0.320673	0.703462	0.676703
331	C	0.48623	0.745528	0.717408
332	C	0.486355	0.745588	0.967705
333	C	0.457967	0.731395	0.009266
334	H	0.465678	0.735251	0.747457
335	O	0.457852	0.731335	0.927867
336	H	0.481299	0.743064	0.901121
337	C	0.708289	0.39727	0.009378
338	N	0.654183	0.36995	0.009541
339	C	0.626862	0.315845	0.009381
340	N	0.654184	0.28906	0.009544
341	C	0.708287	0.315844	0.009381
342	N	0.735074	0.369949	0.009541
343	C	0.750356	0.273778	0.302007
344	C	0.778542	0.245592	0.301039
345	C	0.79274	0.231397	0.342599
346	H	0.740079	0.284054	0.271959
347	O	0.792798	0.231342	0.261199
348	H	0.781067	0.243059	0.234456
349	C	0.750356	0.481403	0.302007
350	C	0.778541	0.037778	0.301039
351	C	0.792736	0.066167	0.342599
352	H	0.740081	0.460854	0.271958
353	O	0.792797	0.066283	0.261199
354	H	0.78107	0.042836	0.234455
355	C	0.542729	0.273778	0.302007
356	C	0.986354	0.24559	0.301039
357	C	0.957965	0.231395	0.342599
358	H	0.563281	0.284053	0.271959
359	O	0.957852	0.231335	0.261199
360	H	0.981299	0.243064	0.234456
361	C	0.708289	0.39727	0.342711
362	N	0.654183	0.36995	0.342874
363	C	0.626862	0.315845	0.342714
364	N	0.654184	0.28906	0.342877
365	C	0.708287	0.315844	0.342714
366	N	0.735074	0.369949	0.342874
367	C	0.820671	0.122036	0.34337
368	N	0.874776	0.149356	0.343207
369	C	0.902097	0.203461	0.34337
370	N	0.874779	0.230246	0.343207
371	C	0.820672	0.203462	0.34337
372	N	0.793889	0.149357	0.343207
373	C	0.778606	0.245527	0.384074
374	C	0.750416	0.273713	0.385043
375	C	0.736223	0.287908	0.343486
376	C	0.750356	0.273778	0.63534
377	C	0.778542	0.245592	0.634372
378	C	0.79274	0.231397	0.675932
379	H	0.740079	0.284054	0.605291
380	O	0.736163	0.287962	0.424884
381	H	0.788879	0.235251	0.414124
382	O	0.792798	0.231342	0.594534
383	H	0.747894	0.276245	0.451627
384	H	0.781067	0.243059	0.567787
385	C	0.778604	0.037903	0.384074
386	C	0.750419	0.481531	0.385043
387	C	0.736224	0.453141	0.343482
388	C	0.750356	0.481403	0.63534
389	C	0.778541	0.037778	0.634372
390	C	0.792736	0.066167	0.675932
391	H	0.740081	0.460854	0.605291
392	O	0.736163	0.453025	0.424884
393	H	0.788879	0.058454	0.414124
394	O	0.792797	0.066283	0.594534
395	H	0.747893	0.476472	0.451627
396	H	0.78107	0.042836	0.567787
397	C	0.986229	0.245527	0.384074
398	C	0.542605	0.273716	0.385043
399	C	0.570994	0.287911	0.343486
400	C	0.542729	0.273778	0.63534
401	C	0.986354	0.24559	0.634372
402	C	0.957965	0.231395	0.675932
403	H	0.563281	0.284053	0.605291
404	O	0.571106	0.287969	0.424884
405	H	0.965677	0.235252	0.414124
406	O	0.957852	0.231335	0.594534
407	H	0.547659	0.27624	0.451627
408	H	0.981299	0.243064	0.567787
409	C	0.708289	0.39727	0.676044
410	N	0.654183	0.36995	0.676207
411	C	0.626862	0.315845	0.676048
412	N	0.654184	0.28906	0.676211
413	C	0.708287	0.315844	0.676048
414	N	0.735074	0.369949	0.676207
415	C	0.820671	0.122036	0.676703
416	N	0.874776	0.149356	0.67654
417	C	0.902097	0.203461	0.676703
418	N	0.874779	0.230246	0.67654
419	C	0.820672	0.203462	0.676703
420	N	0.793889	0.149357	0.67654
421	C	0.778606	0.245527	0.717408
422	C	0.750416	0.273713	0.718376
423	C	0.736223	0.287908	0.676819
424	C	0.750356	0.273778	0.968673
425	C	0.778542	0.245592	0.967705
426	C	0.79274	0.231397	0.009266
427	H	0.740079	0.284054	0.938624
428	O	0.736163	0.287962	0.758217
429	H	0.788879	0.235251	0.747457
430	O	0.792798	0.231342	0.927867
431	H	0.747894	0.276245	0.784961
432	H	0.781067	0.243059	0.901121
433	C	0.778604	0.037903	0.717408
434	C	0.750419	0.481531	0.718376
435	C	0.736224	0.453141	0.676816
436	C	0.750356	0.481403	0.968673
437	C	0.778541	0.037778	0.967705
438	C	0.792736	0.066167	0.009266
439	H	0.740081	0.460854	0.938624
440	O	0.736163	0.453025	0.758217
441	H	0.788879	0.058454	0.747457
442	O	0.792797	0.066283	0.927867
443	H	0.747893	0.476472	0.784961
444	H	0.78107	0.042836	0.901121
445	C	0.986229	0.245527	0.717408
446	C	0.542605	0.273716	0.718376
447	C	0.570994	0.287911	0.676819
448	C	0.542729	0.273778	0.968673
449	C	0.986354	0.24559	0.967705
450	C	0.957965	0.231395	0.009266
451	H	0.563281	0.284053	0.938624
452	O	0.571106	0.287969	0.758217
453	H	0.965677	0.235252	0.747457
454	O	0.957852	0.231335	0.927867
455	H	0.547659	0.27624	0.784961
456	H	0.981299	0.243064	0.901121
457	C	0.708289	0.89727	0.009378
458	N	0.654185	0.869951	0.009541
459	C	0.626863	0.815845	0.009381
460	N	0.654183	0.789059	0.009544
461	C	0.708289	0.815845	0.009381
462	N	0.735072	0.869947	0.009541
463	C	0.750358	0.773779	0.302007
464	C	0.778544	0.745592	0.301039
465	C	0.792739	0.731399	0.342599
466	H	0.74008	0.784052	0.271959
467	O	0.7928	0.731343	0.261199
468	H	0.78107	0.74306	0.234456
469	C	0.750359	0.981406	0.302007
470	C	0.778543	0.537778	0.301039
471	C	0.792738	0.566168	0.342599
472	H	0.740082	0.960853	0.271958
473	O	0.792796	0.566283	0.261199
474	H	0.781069	0.542837	0.234455
475	C	0.542731	0.773779	0.302007
476	C	0.986355	0.745588	0.301039
477	C	0.957967	0.731395	0.342599
478	H	0.56328	0.784052	0.271959
479	O	0.957851	0.731335	0.261199
480	H	0.981298	0.743064	0.234456
481	C	0.708289	0.89727	0.342711
482	N	0.654185	0.869951	0.342874
483	C	0.626863	0.815845	0.342714
484	N	0.654183	0.789059	0.342877
485	C	0.708289	0.815845	0.342714
486	N	0.735072	0.869947	0.342874
487	C	0.820673	0.622037	0.34337
488	N	0.874778	0.649357	0.343207
489	C	0.9021	0.703462	0.34337
490	N	0.874777	0.730244	0.343207
491	C	0.820674	0.703462	0.34337
492	N	0.793887	0.649357	0.343207
493	C	0.778605	0.745528	0.384074
494	C	0.750419	0.773715	0.385043
495	C	0.736223	0.787908	0.343486
496	C	0.750358	0.773779	0.63534
497	C	0.778544	0.745592	0.634372
498	C	0.792739	0.731399	0.675932
499	H	0.74008	0.784052	0.605291
500	O	0.736165	0.787964	0.424884
501	H	0.788881	0.735251	0.414124
502	O	0.7928	0.731343	0.594534
503	H	0.747893	0.776247	0.451627
504	H	0.78107	0.74306	0.567787
505	C	0.778607	0.537905	0.384074
506	C	0.750419	0.981529	0.385043
507	C	0.736225	0.953139	0.343482
508	C	0.750359	0.981406	0.63534
509	C	0.778543	0.537778	0.634372
510	C	0.792738	0.566168	0.675932
511	H	0.740082	0.960853	0.605291
512	O	0.736167	0.953028	0.424884
513	H	0.788881	0.558455	0.414124
514	O	0.792796	0.566283	0.594534
515	H	0.747894	0.976475	0.451627
516	H	0.781069	0.542837	0.567787
517	C	0.986232	0.745528	0.384074
518	C	0.542604	0.773715	0.385043
519	C	0.570995	0.787912	0.343486
520	C	0.542731	0.773779	0.63534
521	C	0.986355	0.745588	0.634372
522	C	0.957967	0.731395	0.675932
523	H	0.56328	0.784052	0.605291
524	O	0.571106	0.787968	0.424884
525	H	0.965679	0.735251	0.414124
526	O	0.957851	0.731335	0.594534
527	H	0.547659	0.776239	0.451627
528	H	0.981298	0.743064	0.567787
529	C	0.708289	0.89727	0.676044
530	N	0.654185	0.869951	0.676207
531	C	0.626863	0.815845	0.676048
532	N	0.654183	0.789059	0.676211
533	C	0.708289	0.815845	0.676048
534	N	0.735072	0.869947	0.676207
535	C	0.820673	0.622037	0.676703
536	N	0.874778	0.649357	0.67654
537	C	0.9021	0.703462	0.676703
538	N	0.874777	0.730244	0.67654
539	C	0.820674	0.703462	0.676703
540	N	0.793887	0.649357	0.67654
541	C	0.778605	0.745528	0.717408
542	C	0.750419	0.773715	0.718376
543	C	0.736223	0.787908	0.676819
544	C	0.750358	0.773779	0.968673
545	C	0.778544	0.745592	0.967705
546	C	0.792739	0.731399	0.009266
547	H	0.74008	0.784052	0.938624
548	O	0.736165	0.787964	0.758217
549	H	0.788881	0.735251	0.747457
550	O	0.7928	0.731343	0.927867
551	H	0.747893	0.776247	0.784961
552	H	0.78107	0.74306	0.901121
553	C	0.778607	0.537905	0.717408
554	C	0.750419	0.981529	0.718376
555	C	0.736225	0.953139	0.676816
556	C	0.750359	0.981406	0.968673
557	C	0.778543	0.537778	0.967705
558	C	0.792738	0.566168	0.009266
559	H	0.740082	0.960853	0.938624
560	O	0.736167	0.953028	0.758217
561	H	0.788881	0.558455	0.747457
562	O	0.792796	0.566283	0.927867
563	H	0.747894	0.976475	0.784961
564	H	0.781069	0.542837	0.901121
565	C	0.986232	0.745528	0.717408
566	C	0.542604	0.773715	0.718376
567	C	0.570995	0.787912	0.676819
568	C	0.542731	0.773779	0.968673
569	C	0.986355	0.745588	0.967705
570	C	0.957967	0.731395	0.009266
571	H	0.56328	0.784052	0.938624
572	O	0.571106	0.787968	0.758217
573	H	0.965679	0.735251	0.747457
574	O	0.957851	0.731335	0.927867
575	H	0.547659	0.776239	0.784961
576	H	0.981298	0.743064	0.901121
