data_C144H108N54O18_2018-02-15_10:32:30
#******************************************
#
# CIF file created by Zeo++
# Zeo++ is an open source package to
# analyze microporous materials
#
#*******************************************

_cell_length_a		29.1807   
_cell_length_b		29.1814   
_cell_length_c		30.1284   
_cell_angle_alpha		90   
_cell_angle_beta		90   
_cell_angle_gamma		120   

_symmetry_space_group_name_H-M		'P1'
_symmetry_Int_Tables_number		1
_symmetry_cell_setting		Monoclinic

loop_
_symmetry_equiv_pos_as_xyz
'+x,+y,+z'

loop_
_atom_site_label
_atom_site_type_symbol
_atom_site_fract_x
_atom_site_fract_y
_atom_site_fract_z
1	C	0.27683	0.63023	0.997892
2	N	0.311315	0.611854	0.997626
3	C	0.364389	0.645484	0.331128
4	N	0.382775	0.698353	0.997665
5	C	0.349134	0.717786	0.997932
6	N	0.29627	0.683301	0.997765
7	C	0.399826	0.626115	0.996756
8	C	0.368439	0.772586	0.330395
9	C	0.222029	0.594756	0.996982
10	O	0.335673	0.789296	0.981521
11	O	0.205309	0.545286	0.981418
12	O	0.449192	0.658787	0.980947
13	C	0.717449	0.361652	0.971302
14	N	0.686593	0.384276	0.971637
15	C	0.632982	0.354723	0.30471
16	N	0.610357	0.301243	0.971647
17	C	0.639912	0.27719	0.971318
18	N	0.693392	0.308044	0.971584
19	C	0.600931	0.378083	0.974677
20	C	0.61658	0.221781	0.307911
21	C	0.772856	0.393728	0.974574
22	O	0.648044	0.201057	0.965646
23	O	0.793585	0.445918	0.965659
24	O	0.548741	0.346648	0.965755
25	C	0.590962	0.453294	0.327643
26	C	0.609761	0.505688	0.312974
27	C	0.580432	0.531812	0.319396
28	C	0.530956	0.50428	0.008583
29	C	0.513092	0.452701	0.024926
30	C	0.543127	0.427926	0.01847
31	H	0.477509	0.432235	0.041024
32	H	0.529481	0.390926	0.031361
33	C	0.495665	0.524286	0.011641
34	C	0.472057	0.527729	0.305049
35	C	0.435452	0.545456	0.305298
36	C	0.420735	0.558767	0.01231
37	C	0.442922	0.553975	0.052387
38	C	0.481111	0.537562	0.0528
39	H	0.481413	0.517484	0.27528
40	H	0.419223	0.548178	0.275998
41	H	0.43236	0.56443	0.081448
42	H	0.645006	0.524658	0.296241
43	N	0.600755	0.582165	0.304042
44	H	0.634898	0.600351	0.289128
45	H	0.58317	0.6025	0.309165
46	N	0.503066	0.536153	0.09227
47	H	0.530976	0.527297	0.094083
48	H	0.493055	0.546208	0.119849
49	N	0.620555	0.429584	0.320099
50	H	0.658816	0.452139	0.322838
51	N	0.386234	0.577139	0.012193
52	H	0.353851	0.557414	0.029473
53	C	0.541418	0.136563	0.327533
54	C	0.489034	0.102931	0.312862
55	C	0.46294	0.047482	0.319305
56	C	0.490521	0.025589	0.008486
57	C	0.54208	0.059338	0.024849
58	C	0.566824	0.114142	0.018371
59	H	0.562555	0.044252	0.040977
60	H	0.603808	0.137528	0.031279
61	C	0.470467	0.970292	0.011661
62	C	0.467044	0.943139	0.305135
63	C	0.449277	0.888798	0.305493
64	C	0.435931	0.860878	0.012556
65	C	0.440665	0.887943	0.052566
66	C	0.457173	0.942569	0.052871
67	H	0.477291	0.962663	0.27533
68	H	0.446521	0.869761	0.276235
69	H	0.43022	0.867007	0.081667
70	H	0.470039	0.119176	0.296121
71	N	0.41259	0.017412	0.303948
72	H	0.394302	0.033379	0.28922
73	H	0.392217	0.979535	0.309266
74	N	0.458592	0.966038	0.092285
75	H	0.467581	0.002846	0.09404
76	H	0.44859	0.946059	0.119909
77	N	0.565085	0.189866	0.319989
78	H	0.542503	0.205542	0.322737
79	N	0.417358	0.807977	0.012572
80	H	0.437554	0.795402	0.029281
81	C	0.858059	0.403761	0.32756
82	C	0.891695	0.385004	0.312907
83	C	0.947142	0.414358	0.319366
84	C	0.969034	0.463816	0.008572
85	C	0.935279	0.481642	0.024893
86	C	0.880477	0.451585	0.0184
87	H	0.950362	0.517207	0.041014
88	H	0.857092	0.465197	0.031285
89	C	0.024321	0.4991	0.01172
90	C	0.051463	0.52279	0.305181
91	C	0.10581	0.559345	0.305523
92	C	0.133745	0.573934	0.012581
93	C	0.10668	0.551664	0.052605
94	C	0.052063	0.513527	0.052922
95	H	0.031929	0.513503	0.275382
96	H	0.124842	0.575604	0.276259
97	H	0.127644	0.562111	0.081693
98	H	0.875454	0.349767	0.296165
99	N	0.977211	0.394066	0.304035
100	H	0.961285	0.359933	0.289108
101	H	0.015125	0.411671	0.30918
102	N	0.02861	0.491483	0.092344
103	H	0.99183	0.463602	0.094092
104	H	0.048617	0.501403	0.119951
105	N	0.804762	0.374137	0.319998
106	H	0.789077	0.335879	0.322739
107	N	0.18665	0.608249	0.01259
108	H	0.199244	0.640989	0.029349
109	C	0.27683	0.63023	0.331226
110	N	0.311315	0.611854	0.330959
111	C	0.364389	0.645484	0.664462
112	N	0.382775	0.698353	0.330998
113	C	0.349134	0.717786	0.331265
114	N	0.29627	0.683301	0.331096
115	C	0.399826	0.626115	0.330088
116	C	0.368439	0.772586	0.663728
117	C	0.222029	0.594756	0.330314
118	O	0.335673	0.789296	0.314852
119	O	0.205309	0.545286	0.314751
120	O	0.449192	0.658787	0.31428
121	C	0.717449	0.361652	0.304635
122	N	0.686593	0.384276	0.304968
123	C	0.632982	0.354723	0.638045
124	N	0.610357	0.301243	0.304978
125	C	0.639912	0.27719	0.30465
126	N	0.693392	0.308044	0.304918
127	C	0.600931	0.378083	0.30801
128	C	0.61658	0.221781	0.641245
129	C	0.772856	0.393728	0.307905
130	O	0.648044	0.201057	0.298977
131	O	0.793585	0.445918	0.298991
132	O	0.548741	0.346648	0.299089
133	C	0.590962	0.453294	0.660977
134	C	0.609761	0.505688	0.64631
135	C	0.580432	0.531812	0.652729
136	C	0.530956	0.50428	0.341916
137	C	0.513092	0.452701	0.35826
138	C	0.543127	0.427926	0.351804
139	H	0.477509	0.432235	0.374357
140	H	0.529481	0.390926	0.364695
141	C	0.495665	0.524286	0.344973
142	C	0.472057	0.527729	0.638384
143	C	0.435452	0.545456	0.638632
144	C	0.420735	0.558767	0.345644
145	C	0.442922	0.553975	0.385722
146	C	0.481111	0.537562	0.386134
147	H	0.481413	0.517484	0.608614
148	H	0.419223	0.548178	0.609331
149	H	0.43236	0.56443	0.414781
150	H	0.645006	0.524658	0.629575
151	N	0.600755	0.582165	0.637375
152	H	0.634898	0.600351	0.622462
153	H	0.58317	0.6025	0.642499
154	N	0.503066	0.536153	0.425605
155	H	0.530976	0.527297	0.427417
156	H	0.493055	0.546208	0.453183
157	N	0.620555	0.429584	0.653432
158	H	0.658816	0.452139	0.656171
159	N	0.386234	0.577139	0.345527
160	H	0.353851	0.557414	0.362807
161	C	0.541418	0.136563	0.660867
162	C	0.489034	0.102931	0.646197
163	C	0.46294	0.047482	0.652639
164	C	0.490521	0.025589	0.34182
165	C	0.54208	0.059338	0.358183
166	C	0.566824	0.114142	0.351704
167	H	0.562555	0.044252	0.374311
168	H	0.603808	0.137528	0.364612
169	C	0.470467	0.970292	0.344996
170	C	0.467044	0.943139	0.63847
171	C	0.449277	0.888798	0.638825
172	C	0.435931	0.860878	0.345889
173	C	0.440665	0.887943	0.385898
174	C	0.457173	0.942569	0.386203
175	H	0.477291	0.962663	0.608664
176	H	0.446521	0.869761	0.60957
177	H	0.43022	0.867007	0.415
178	H	0.470039	0.119176	0.629455
179	N	0.41259	0.017412	0.637282
180	H	0.394302	0.033379	0.622555
181	H	0.392217	0.979535	0.642599
182	N	0.458592	0.966038	0.425618
183	H	0.467581	0.002846	0.427374
184	H	0.44859	0.946059	0.453243
185	N	0.565085	0.189866	0.653323
186	H	0.542503	0.205542	0.656071
187	N	0.417358	0.807977	0.345906
188	H	0.437554	0.795402	0.362614
189	C	0.858059	0.403761	0.660894
190	C	0.891695	0.385004	0.64624
191	C	0.947142	0.414358	0.652699
192	C	0.969034	0.463816	0.341906
193	C	0.935279	0.481642	0.358226
194	C	0.880477	0.451585	0.351734
195	H	0.950362	0.517207	0.374347
196	H	0.857092	0.465197	0.364619
197	C	0.024321	0.4991	0.345053
198	C	0.051463	0.52279	0.638516
199	C	0.10581	0.559345	0.638858
200	C	0.133745	0.573934	0.345916
201	C	0.10668	0.551664	0.385938
202	C	0.052063	0.513527	0.386256
203	H	0.031929	0.513503	0.608717
204	H	0.124842	0.575604	0.609593
205	H	0.127644	0.562111	0.415026
206	H	0.875454	0.349767	0.629498
207	N	0.977211	0.394066	0.637368
208	H	0.961285	0.359933	0.622442
209	H	0.015125	0.411671	0.642513
210	N	0.02861	0.491483	0.425678
211	H	0.99183	0.463602	0.427427
212	H	0.048617	0.501403	0.453286
213	N	0.804762	0.374137	0.653333
214	H	0.789077	0.335879	0.656071
215	N	0.18665	0.608249	0.345922
216	H	0.199244	0.640989	0.362684
217	C	0.27683	0.63023	0.664558
218	N	0.311315	0.611854	0.664293
219	C	0.364389	0.645484	0.997795
220	N	0.382775	0.698353	0.664332
221	C	0.349134	0.717786	0.664598
222	N	0.29627	0.683301	0.664429
223	C	0.399826	0.626115	0.663423
224	C	0.368439	0.772586	0.997061
225	C	0.222029	0.594756	0.663649
226	O	0.335673	0.789296	0.648185
227	O	0.205309	0.545286	0.648085
228	O	0.449192	0.658787	0.647614
229	C	0.717449	0.361652	0.637969
230	N	0.686593	0.384276	0.638301
231	C	0.632982	0.354723	0.971378
232	N	0.610357	0.301243	0.638311
233	C	0.639912	0.27719	0.637985
234	N	0.693392	0.308044	0.638251
235	C	0.600931	0.378083	0.641344
236	C	0.61658	0.221781	0.974578
237	C	0.772856	0.393728	0.641238
238	O	0.648044	0.201057	0.63231
239	O	0.793585	0.445918	0.632326
240	O	0.548741	0.346648	0.632422
241	C	0.590962	0.453294	0.99431
242	C	0.609761	0.505688	0.979643
243	C	0.580432	0.531812	0.986062
244	C	0.530956	0.50428	0.675249
245	C	0.513092	0.452701	0.691592
246	C	0.543127	0.427926	0.685137
247	H	0.477509	0.432235	0.70769
248	H	0.529481	0.390926	0.698028
249	C	0.495665	0.524286	0.678309
250	C	0.472057	0.527729	0.971716
251	C	0.435452	0.545456	0.971965
252	C	0.420735	0.558767	0.678976
253	C	0.442922	0.553975	0.719055
254	C	0.481111	0.537562	0.719466
255	H	0.481413	0.517484	0.941947
256	H	0.419223	0.548178	0.942664
257	H	0.43236	0.56443	0.748117
258	H	0.645006	0.524658	0.962908
259	N	0.600755	0.582165	0.970711
260	H	0.634898	0.600351	0.955795
261	H	0.58317	0.6025	0.975832
262	N	0.503066	0.536153	0.758937
263	H	0.530976	0.527297	0.76075
264	H	0.493055	0.546208	0.786516
265	N	0.620555	0.429584	0.986765
266	H	0.658816	0.452139	0.989507
267	N	0.386234	0.577139	0.67886
268	H	0.353851	0.557414	0.69614
269	C	0.541418	0.136563	0.9942
270	C	0.489034	0.102931	0.97953
271	C	0.46294	0.047482	0.985972
272	C	0.490521	0.025589	0.675153
273	C	0.54208	0.059338	0.691516
274	C	0.566824	0.114142	0.685037
275	H	0.562555	0.044252	0.707644
276	H	0.603808	0.137528	0.697949
277	C	0.470467	0.970292	0.678329
278	C	0.467044	0.943139	0.971803
279	C	0.449277	0.888798	0.972161
280	C	0.435931	0.860878	0.679222
281	C	0.440665	0.887943	0.719234
282	C	0.457173	0.942569	0.719539
283	H	0.477291	0.962663	0.941997
284	H	0.446521	0.869761	0.942903
285	H	0.43022	0.867007	0.748333
286	H	0.470039	0.119176	0.962788
287	N	0.41259	0.017412	0.970615
288	H	0.394302	0.033379	0.955888
289	H	0.392217	0.979535	0.975935
290	N	0.458592	0.966038	0.758954
291	H	0.467581	0.002846	0.760707
292	H	0.44859	0.946059	0.786576
293	N	0.565085	0.189866	0.986656
294	H	0.542503	0.205542	0.989404
295	N	0.417358	0.807977	0.679239
296	H	0.437554	0.795402	0.69595
297	C	0.858059	0.403761	0.994227
298	C	0.891695	0.385004	0.979573
299	C	0.947142	0.414358	0.986035
300	C	0.969034	0.463816	0.675239
301	C	0.935279	0.481642	0.691559
302	C	0.880477	0.451585	0.685067
303	H	0.950362	0.517207	0.70768
304	H	0.857092	0.465197	0.697952
305	C	0.024321	0.4991	0.678389
306	C	0.051463	0.52279	0.971849
307	C	0.10581	0.559345	0.972191
308	C	0.133745	0.573934	0.679249
309	C	0.10668	0.551664	0.719274
310	C	0.052063	0.513527	0.719589
311	H	0.031929	0.513503	0.94205
312	H	0.124842	0.575604	0.942926
313	H	0.127644	0.562111	0.748359
314	H	0.875454	0.349767	0.962834
315	N	0.977211	0.394066	0.970704
316	H	0.961285	0.359933	0.955775
317	H	0.015125	0.411671	0.975849
318	N	0.02861	0.491483	0.75901
319	H	0.99183	0.463602	0.76076
320	H	0.048617	0.501403	0.786619
321	N	0.804762	0.374137	0.986666
322	H	0.789077	0.335879	0.989407
323	N	0.18665	0.608249	0.679259
324	H	0.199244	0.640989	0.696017
