data_C252H180N72_2018-02-15_10:39:19
#******************************************
#
# CIF file created by Zeo++
# Zeo++ is an open source package to
# analyze microporous materials
#
#*******************************************

_cell_length_a		34.2149   
_cell_length_b		34.2253   
_cell_length_c		29.4348   
_cell_angle_alpha		90   
_cell_angle_beta		90   
_cell_angle_gamma		119.993   

_symmetry_space_group_name_H-M		'P1'
_symmetry_Int_Tables_number		1
_symmetry_cell_setting		Monoclinic

loop_
_symmetry_equiv_pos_as_xyz
'+x,+y,+z'

loop_
_atom_site_label
_atom_site_type_symbol
_atom_site_fract_x
_atom_site_fract_y
_atom_site_fract_z
1	C	0.05917	0.031979	0.008623
2	C	0.034456	0.055048	0.008708
3	C	0.986633	0.031671	0.008579
4	C	0.963574	0.983891	0.008592
5	C	0.986966	0.959463	0.008545
6	C	0.034758	0.984175	0.00863
7	H	0.929021	0.966524	0.008239
8	H	0.052141	0.967007	0.00828
9	H	0.051653	0.08959	0.008453
10	C	0.467771	0.2022	0.016177
11	C	0.49063	0.249299	0.009564
12	C	0.467533	0.273395	0.003405
13	C	0.41983	0.249246	0.004726
14	C	0.395311	0.201609	0.010652
15	C	0.420085	0.178634	0.015806
16	H	0.402924	0.2667	0.00138
17	H	0.403358	0.14433	0.019649
18	H	0.525268	0.266631	0.009268
19	C	0.816781	0.270365	0.016203
20	C	0.769669	0.24616	0.009605
21	C	0.745551	0.198992	0.003343
22	C	0.769682	0.175422	0.004621
23	C	0.817327	0.198501	0.010571
24	C	0.840334	0.24623	0.015797
25	H	0.752199	0.141072	0.001244
26	H	0.874643	0.26378	0.019689
27	H	0.752341	0.263468	0.009391
28	C	0.748485	0.550963	0.016346
29	C	0.772742	0.528107	0.009769
30	C	0.819922	0.551186	0.003483
31	C	0.843454	0.598878	0.00475
32	C	0.820327	0.623397	0.010673
33	C	0.772583	0.598635	0.015889
34	H	0.877817	0.615776	0.001376
35	H	0.754996	0.615361	0.019738
36	H	0.755459	0.493481	0.009567
37	C	0.107481	0.056276	0.340882
38	C	0.133185	0.089985	0.039874
39	N	0.178981	0.111528	0.038898
40	C	0.203211	0.103721	0.340532
41	C	0.179654	0.070853	0.306284
42	C	0.131783	0.047431	0.307463
43	H	0.11422	0.023572	0.283204
44	C	0.250963	0.127766	0.011522
45	C	0.274679	0.118724	0.045802
46	C	0.322535	0.143874	0.044985
47	C	0.346849	0.177231	0.011688
48	C	0.320833	0.184665	0.312514
49	N	0.275053	0.159998	0.313307
50	H	0.340076	0.137848	0.069492
51	H	0.335952	0.207631	0.287005
52	H	0.117828	0.097651	0.065304
53	N	0.253509	0.086562	0.078227
54	H	0.220833	0.067971	0.079378
55	H	0.270532	0.08069	0.100999
56	N	0.201001	0.060463	0.273519
57	H	0.184106	0.037617	0.250695
58	H	0.233728	0.075181	0.272001
59	C	0.962342	0.05571	0.340825
60	C	0.928043	0.047157	0.039298
61	N	0.906547	0.071454	0.03838
62	C	0.91497	0.104074	0.340529
63	C	0.948476	0.11401	0.306825
64	C	0.971822	0.08949	0.307955
65	H	0.996099	0.096208	0.284047
66	C	0.890927	0.127768	0.011538
67	C	0.900014	0.160523	0.045818
68	C	0.874962	0.183327	0.044957
69	C	0.84166	0.174377	0.011612
70	C	0.834186	0.140925	0.312434
71	N	0.858781	0.119739	0.313248
72	H	0.881005	0.20688	0.069477
73	H	0.811292	0.13318	0.286862
74	H	0.919899	0.023687	0.064354
75	N	0.932101	0.171374	0.078307
76	H	0.950549	0.157137	0.079535
77	H	0.937995	0.194248	0.101104
78	N	0.959476	0.146354	0.27461
79	H	0.98277	0.152748	0.252166
80	H	0.94479	0.164393	0.273155
81	C	0.962947	0.911154	0.340801
82	C	0.971248	0.885444	0.039537
83	N	0.946966	0.839661	0.038617
84	C	0.914603	0.815438	0.340536
85	C	0.904963	0.838986	0.306555
86	C	0.92945	0.88684	0.307683
87	H	0.922915	0.904386	0.283605
88	C	0.890912	0.767706	0.011549
89	C	0.85817	0.744023	0.045845
90	C	0.835423	0.696179	0.045017
91	C	0.84441	0.671845	0.01169
92	C	0.877822	0.697832	0.312477
93	N	0.898982	0.743601	0.313283
94	H	0.811876	0.678663	0.069544
95	H	0.885645	0.682701	0.286954
96	H	0.994515	0.90079	0.064767
97	N	0.847259	0.765223	0.078314
98	H	0.86142	0.797896	0.0795
99	H	0.824388	0.74823	0.101113
100	N	0.87288	0.817635	0.274097
101	H	0.866702	0.834516	0.25145
102	H	0.85486	0.784918	0.272622
103	C	0.494609	0.181379	0.021639
104	C	0.499902	0.157454	0.318789
105	N	0.537271	0.153252	0.316713
106	C	0.570724	0.169593	0.015128
107	C	0.566327	0.192258	0.053773
108	C	0.527437	0.196785	0.056511
109	H	0.525351	0.215987	0.082066
110	C	0.610982	0.168817	0.337886
111	C	0.637697	0.189803	0.298554
112	C	0.680588	0.193088	0.295695
113	C	0.6979	0.178221	0.331135
114	C	0.669048	0.155999	0.034766
115	N	0.627943	0.152873	0.036878
116	H	0.701745	0.211311	0.269646
117	H	0.680371	0.146779	0.062612
118	H	0.478815	0.147701	0.291351
119	N	0.626201	0.2101	0.265524
120	H	0.599146	0.212415	0.267388
121	H	0.646208	0.22541	0.240045
122	N	0.598758	0.212985	0.086149
123	H	0.594908	0.229313	0.111209
124	H	0.627693	0.214346	0.08431
125	C	0.837578	0.317988	0.021849
126	C	0.861521	0.347165	0.318966
127	N	0.865687	0.388714	0.316877
128	C	0.849487	0.405909	0.015355
129	C	0.826898	0.378897	0.054049
130	C	0.822299	0.33546	0.056762
131	H	0.803087	0.314177	0.082312
132	C	0.850223	0.446905	0.338064
133	C	0.829138	0.452573	0.298776
134	C	0.825831	0.492151	0.295903
135	C	0.840763	0.524362	0.33133
136	C	0.863174	0.517851	0.03486
137	N	0.866266	0.479865	0.036988
138	H	0.807445	0.495006	0.269967
139	H	0.872353	0.5384	0.062692
140	H	0.871047	0.335799	0.291387
141	N	0.808633	0.420686	0.265873
142	H	0.806476	0.391389	0.267642
143	H	0.793405	0.425405	0.24033
144	N	0.806234	0.390637	0.08646
145	H	0.789998	0.370514	0.111588
146	H	0.804985	0.418263	0.084701
147	C	0.700825	0.524096	0.021902
148	C	0.67166	0.519012	0.319064
149	N	0.630108	0.481639	0.316915
150	C	0.612919	0.44813	0.015266
151	C	0.639952	0.452434	0.053917
152	C	0.683369	0.491308	0.056771
153	H	0.704644	0.493251	0.082275
154	C	0.57187	0.407937	0.337928
155	C	0.566129	0.381282	0.298559
156	C	0.52654	0.338407	0.295685
157	C	0.494372	0.321024	0.331144
158	C	0.50093	0.349901	0.034745
159	N	0.538974	0.390937	0.036924
160	H	0.523658	0.317208	0.269703
161	H	0.480581	0.338478	0.06272
162	H	0.683035	0.539989	0.291554
163	N	0.597959	0.392735	0.265574
164	H	0.627255	0.419883	0.267322
165	H	0.593192	0.372852	0.239967
166	N	0.628177	0.419943	0.086232
167	H	0.648381	0.423678	0.111231
168	H	0.600686	0.390971	0.084219
169	C	0.05917	0.031979	0.341956
170	C	0.034456	0.055048	0.342041
171	C	0.986633	0.031671	0.341912
172	C	0.963574	0.983891	0.341925
173	C	0.986966	0.959463	0.341878
174	C	0.034758	0.984175	0.341966
175	H	0.929021	0.966524	0.341575
176	H	0.052141	0.967007	0.341613
177	H	0.051653	0.08959	0.341786
178	C	0.467771	0.2022	0.349508
179	C	0.49063	0.249299	0.3429
180	C	0.467533	0.273395	0.336738
181	C	0.41983	0.249246	0.338061
182	C	0.395311	0.201609	0.343984
183	C	0.420085	0.178634	0.349138
184	H	0.402924	0.2667	0.334715
185	H	0.403358	0.14433	0.352984
186	H	0.525268	0.266631	0.342601
187	C	0.816781	0.270365	0.349535
188	C	0.769669	0.24616	0.342938
189	C	0.745551	0.198992	0.336676
190	C	0.769682	0.175422	0.337953
191	C	0.817327	0.198501	0.343906
192	C	0.840334	0.24623	0.349131
193	H	0.752199	0.141072	0.334576
194	H	0.874643	0.26378	0.353021
195	H	0.752341	0.263468	0.342724
196	C	0.748485	0.550963	0.349678
197	C	0.772742	0.528107	0.343101
198	C	0.819922	0.551186	0.336818
199	C	0.843454	0.598878	0.338084
200	C	0.820327	0.623397	0.344008
201	C	0.772583	0.598635	0.349223
202	H	0.877817	0.615776	0.334709
203	H	0.754996	0.615361	0.353072
204	H	0.755459	0.493481	0.3429
205	C	0.107481	0.056276	0.674216
206	C	0.133185	0.089985	0.373208
207	N	0.178981	0.111528	0.37223
208	C	0.203211	0.103721	0.673863
209	C	0.179654	0.070853	0.639617
210	C	0.131783	0.047431	0.640796
211	H	0.11422	0.023572	0.616536
212	C	0.250963	0.127766	0.344857
213	C	0.274679	0.118724	0.379136
214	C	0.322535	0.143874	0.378318
215	C	0.346849	0.177231	0.34502
216	C	0.320833	0.184665	0.645848
217	N	0.275053	0.159998	0.64664
218	H	0.340076	0.137848	0.402826
219	H	0.335952	0.207631	0.620337
220	H	0.117828	0.097651	0.398637
221	N	0.253509	0.086562	0.411561
222	H	0.220833	0.067971	0.412712
223	H	0.270532	0.08069	0.434333
224	N	0.201001	0.060463	0.606853
225	H	0.184106	0.037617	0.58403
226	H	0.233728	0.075181	0.605335
227	C	0.962342	0.05571	0.674158
228	C	0.928043	0.047157	0.372631
229	N	0.906547	0.071454	0.371713
230	C	0.91497	0.104074	0.673859
231	C	0.948476	0.11401	0.640158
232	C	0.971822	0.08949	0.641289
233	H	0.996099	0.096208	0.617378
234	C	0.890927	0.127768	0.344871
235	C	0.900014	0.160523	0.37915
236	C	0.874962	0.183327	0.378291
237	C	0.84166	0.174377	0.344946
238	C	0.834186	0.140925	0.645767
239	N	0.858781	0.119739	0.646582
240	H	0.881005	0.20688	0.402809
241	H	0.811292	0.13318	0.620195
242	H	0.919899	0.023687	0.397686
243	N	0.932101	0.171374	0.411639
244	H	0.950549	0.157137	0.412869
245	H	0.937995	0.194248	0.434438
246	N	0.959476	0.146354	0.607944
247	H	0.98277	0.152748	0.585498
248	H	0.94479	0.164393	0.60649
249	C	0.962947	0.911154	0.674134
250	C	0.971248	0.885444	0.372872
251	N	0.946966	0.839661	0.371951
252	C	0.914603	0.815438	0.673869
253	C	0.904963	0.838986	0.639889
254	C	0.92945	0.88684	0.641017
255	H	0.922915	0.904386	0.616937
256	C	0.890912	0.767706	0.344881
257	C	0.85817	0.744023	0.379177
258	C	0.835423	0.696179	0.378352
259	C	0.84441	0.671845	0.345024
260	C	0.877822	0.697832	0.645811
261	N	0.898982	0.743601	0.646616
262	H	0.811876	0.678663	0.402877
263	H	0.885645	0.682701	0.620287
264	H	0.994515	0.90079	0.3981
265	N	0.847259	0.765223	0.411646
266	H	0.86142	0.797896	0.412835
267	H	0.824388	0.74823	0.434445
268	N	0.87288	0.817635	0.607431
269	H	0.866702	0.834516	0.584784
270	H	0.85486	0.784918	0.605957
271	C	0.494609	0.181379	0.354971
272	C	0.499902	0.157454	0.652123
273	N	0.537271	0.153252	0.650047
274	C	0.570724	0.169593	0.348462
275	C	0.566327	0.192258	0.387107
276	C	0.527437	0.196785	0.389845
277	H	0.525351	0.215987	0.4154
278	C	0.610982	0.168817	0.671219
279	C	0.637697	0.189803	0.631888
280	C	0.680588	0.193088	0.629028
281	C	0.6979	0.178221	0.664469
282	C	0.669048	0.155999	0.368098
283	N	0.627943	0.152873	0.370212
284	H	0.701745	0.211311	0.602977
285	H	0.680371	0.146779	0.395946
286	H	0.478815	0.147701	0.624686
287	N	0.626201	0.2101	0.598856
288	H	0.599146	0.212415	0.600721
289	H	0.646208	0.22541	0.573379
290	N	0.598758	0.212985	0.419483
291	H	0.594908	0.229313	0.444542
292	H	0.627693	0.214346	0.417642
293	C	0.837578	0.317988	0.355182
294	C	0.861521	0.347165	0.6523
295	N	0.865687	0.388714	0.65021
296	C	0.849487	0.405909	0.348689
297	C	0.826898	0.378897	0.387382
298	C	0.822299	0.33546	0.390096
299	H	0.803087	0.314177	0.415644
300	C	0.850223	0.446905	0.671396
301	C	0.829138	0.452573	0.632109
302	C	0.825831	0.492151	0.629235
303	C	0.840763	0.524362	0.664663
304	C	0.863174	0.517851	0.368194
305	N	0.866266	0.479865	0.37032
306	H	0.807445	0.495006	0.6033
307	H	0.872353	0.5384	0.396025
308	H	0.871047	0.335799	0.62472
309	N	0.808633	0.420686	0.599206
310	H	0.806476	0.391389	0.600976
311	H	0.793405	0.425405	0.573661
312	N	0.806234	0.390637	0.419792
313	H	0.789998	0.370514	0.444923
314	H	0.804985	0.418263	0.418036
315	C	0.700825	0.524096	0.355236
316	C	0.67166	0.519012	0.652398
317	N	0.630108	0.481639	0.650248
318	C	0.612919	0.44813	0.348598
319	C	0.639952	0.452434	0.387249
320	C	0.683369	0.491308	0.390103
321	H	0.704644	0.493251	0.415607
322	C	0.57187	0.407937	0.67126
323	C	0.566129	0.381282	0.631892
324	C	0.52654	0.338407	0.629018
325	C	0.494372	0.321024	0.664476
326	C	0.50093	0.349901	0.368078
327	N	0.538974	0.390937	0.370256
328	H	0.523658	0.317208	0.603038
329	H	0.480581	0.338478	0.396052
330	H	0.683035	0.539989	0.624887
331	N	0.597959	0.392735	0.598907
332	H	0.627255	0.419883	0.600657
333	H	0.593192	0.372852	0.573301
334	N	0.628177	0.419943	0.419565
335	H	0.648381	0.423678	0.444566
336	H	0.600686	0.390971	0.417554
337	C	0.05917	0.031979	0.675289
338	C	0.034456	0.055048	0.675374
339	C	0.986633	0.031671	0.675245
340	C	0.963574	0.983891	0.675259
341	C	0.986966	0.959463	0.675211
342	C	0.034758	0.984175	0.675296
343	H	0.929021	0.966524	0.674909
344	H	0.052141	0.967007	0.674946
345	H	0.051653	0.08959	0.67512
346	C	0.467771	0.2022	0.682842
347	C	0.49063	0.249299	0.676231
348	C	0.467533	0.273395	0.670071
349	C	0.41983	0.249246	0.671393
350	C	0.395311	0.201609	0.677318
351	C	0.420085	0.178634	0.682471
352	H	0.402924	0.2667	0.668046
353	H	0.403358	0.14433	0.686317
354	H	0.525268	0.266631	0.675935
355	C	0.816781	0.270365	0.682869
356	C	0.769669	0.24616	0.676271
357	C	0.745551	0.198992	0.67001
358	C	0.769682	0.175422	0.671287
359	C	0.817327	0.198501	0.677236
360	C	0.840334	0.24623	0.682461
361	H	0.752199	0.141072	0.66791
362	H	0.874643	0.26378	0.686355
363	H	0.752341	0.263468	0.676057
364	C	0.748485	0.550963	0.683012
365	C	0.772742	0.528107	0.676434
366	C	0.819922	0.551186	0.670153
367	C	0.843454	0.598878	0.671416
368	C	0.820327	0.623397	0.677338
369	C	0.772583	0.598635	0.682556
370	H	0.877817	0.615776	0.668043
371	H	0.754996	0.615361	0.686406
372	H	0.755459	0.493481	0.676234
373	C	0.107481	0.056276	0.007549
374	C	0.133185	0.089985	0.706542
375	N	0.178981	0.111528	0.705563
376	C	0.203211	0.103721	0.007196
377	C	0.179654	0.070853	0.972951
378	C	0.131783	0.047431	0.97413
379	H	0.11422	0.023572	0.949869
380	C	0.250963	0.127766	0.678187
381	C	0.274679	0.118724	0.71247
382	C	0.322535	0.143874	0.711651
383	C	0.346849	0.177231	0.678354
384	C	0.320833	0.184665	0.979182
385	N	0.275053	0.159998	0.979973
386	H	0.340076	0.137848	0.73616
387	H	0.335952	0.207631	0.953671
388	H	0.117828	0.097651	0.731971
389	N	0.253509	0.086562	0.744894
390	H	0.220833	0.067971	0.746042
391	H	0.270532	0.08069	0.767667
392	N	0.201001	0.060463	0.940187
393	H	0.184106	0.037617	0.91736
394	H	0.233728	0.075181	0.938668
395	C	0.962342	0.05571	0.007492
396	C	0.928043	0.047157	0.705964
397	N	0.906547	0.071454	0.705047
398	C	0.91497	0.104074	0.007193
399	C	0.948476	0.11401	0.973491
400	C	0.971822	0.08949	0.974622
401	H	0.996099	0.096208	0.950712
402	C	0.890927	0.127768	0.678204
403	C	0.900014	0.160523	0.712484
404	C	0.874962	0.183327	0.711624
405	C	0.84166	0.174377	0.678279
406	C	0.834186	0.140925	0.9791
407	N	0.858781	0.119739	0.979915
408	H	0.881005	0.20688	0.736143
409	H	0.811292	0.13318	0.953528
410	H	0.919899	0.023687	0.731019
411	N	0.932101	0.171374	0.744972
412	H	0.950549	0.157137	0.746202
413	H	0.937995	0.194248	0.767772
414	N	0.959476	0.146354	0.941277
415	H	0.98277	0.152748	0.918831
416	H	0.94479	0.164393	0.939823
417	C	0.962947	0.911154	0.007468
418	C	0.971248	0.885444	0.706205
419	N	0.946966	0.839661	0.705285
420	C	0.914603	0.815438	0.007203
421	C	0.904963	0.838986	0.973223
422	C	0.92945	0.88684	0.974351
423	H	0.922915	0.904386	0.95027
424	C	0.890912	0.767706	0.678215
425	C	0.85817	0.744023	0.712511
426	C	0.835423	0.696179	0.711685
427	C	0.84441	0.671845	0.678357
428	C	0.877822	0.697832	0.979144
429	N	0.898982	0.743601	0.979949
430	H	0.811876	0.678663	0.736211
431	H	0.885645	0.682701	0.95362
432	H	0.994515	0.90079	0.731434
433	N	0.847259	0.765223	0.744979
434	H	0.86142	0.797896	0.746165
435	H	0.824388	0.74823	0.767779
436	N	0.87288	0.817635	0.940764
437	H	0.866702	0.834516	0.918118
438	H	0.85486	0.784918	0.93929
439	C	0.494609	0.181379	0.688305
440	C	0.499902	0.157454	0.985456
441	N	0.537271	0.153252	0.983381
442	C	0.570724	0.169593	0.681795
443	C	0.566327	0.192258	0.72044
444	C	0.527437	0.196785	0.723178
445	H	0.525351	0.215987	0.748733
446	C	0.610982	0.168817	0.004553
447	C	0.637697	0.189803	0.965219
448	C	0.680588	0.193088	0.962361
449	C	0.6979	0.178221	0.997802
450	C	0.669048	0.155999	0.701432
451	N	0.627943	0.152873	0.703545
452	H	0.701745	0.211311	0.936311
453	H	0.680371	0.146779	0.72928
454	H	0.478815	0.147701	0.958016
455	N	0.626201	0.2101	0.93219
456	H	0.599146	0.212415	0.934055
457	H	0.646208	0.22541	0.906713
458	N	0.598758	0.212985	0.752817
459	H	0.594908	0.229313	0.777876
460	H	0.627693	0.214346	0.750975
461	C	0.837578	0.317988	0.688515
462	C	0.861521	0.347165	0.985633
463	N	0.865687	0.388714	0.983544
464	C	0.849487	0.405909	0.682023
465	C	0.826898	0.378897	0.720715
466	C	0.822299	0.33546	0.72343
467	H	0.803087	0.314177	0.748978
468	C	0.850223	0.446905	0.00473
469	C	0.829138	0.452573	0.965443
470	C	0.825831	0.492151	0.962569
471	C	0.840763	0.524362	0.997996
472	C	0.863174	0.517851	0.701527
473	N	0.866266	0.479865	0.703654
474	H	0.807445	0.495006	0.936633
475	H	0.872353	0.5384	0.729358
476	H	0.871047	0.335799	0.958054
477	N	0.808633	0.420686	0.93254
478	H	0.806476	0.391389	0.93431
479	H	0.793405	0.425405	0.906995
480	N	0.806234	0.390637	0.753126
481	H	0.789998	0.370514	0.778256
482	H	0.804985	0.418263	0.751366
483	C	0.700825	0.524096	0.68857
484	C	0.67166	0.519012	0.985732
485	N	0.630108	0.481639	0.983581
486	C	0.612919	0.44813	0.681931
487	C	0.639952	0.452434	0.720583
488	C	0.683369	0.491308	0.723437
489	H	0.704644	0.493251	0.74894
490	C	0.57187	0.407937	0.004594
491	C	0.566129	0.381282	0.965225
492	C	0.52654	0.338407	0.962351
493	C	0.494372	0.321024	0.997809
494	C	0.50093	0.349901	0.701412
495	N	0.538974	0.390937	0.703589
496	H	0.523658	0.317208	0.936368
497	H	0.480581	0.338478	0.729385
498	H	0.683035	0.539989	0.95822
499	N	0.597959	0.392735	0.932241
500	H	0.627255	0.419883	0.933987
501	H	0.593192	0.372852	0.906635
502	N	0.628177	0.419943	0.752898
503	H	0.648381	0.423678	0.777896
504	H	0.600686	0.390971	0.750887
