data_C288H108N108O72_2018-02-15_10:37:31
#******************************************
#
# CIF file created by Zeo++
# Zeo++ is an open source package to
# analyze microporous materials
#
#*******************************************

_cell_length_a		29.5144   
_cell_length_b		29.5144   
_cell_length_c		29.9276   
_cell_angle_alpha		90   
_cell_angle_beta		90   
_cell_angle_gamma		120   

_symmetry_space_group_name_H-M		'P1'
_symmetry_Int_Tables_number		1
_symmetry_cell_setting		Monoclinic

loop_
_symmetry_equiv_pos_as_xyz
'+x,+y,+z'

loop_
_atom_site_label
_atom_site_type_symbol
_atom_site_fract_x
_atom_site_fract_y
_atom_site_fract_z
1	C	0.037119	0.30546	0.027448
2	C	0.037119	0.30546	0.360781
3	C	0.037119	0.30546	0.694115
4	C	0.037118	0.80546	0.027453
5	C	0.037118	0.80546	0.360787
6	C	0.037118	0.80546	0.694118
7	C	0.205384	0.389515	0.0156
8	N	0.152209	0.361509	0.017652
9	C	0.123332	0.308449	0.018474
10	N	0.151267	0.283167	0.016951
11	C	0.204462	0.30716	0.015555
12	N	0.23001	0.360669	0.014909
13	C	0.319129	0.11412	0.01135
14	N	0.372065	0.141773	0.012772
15	C	0.399254	0.19472	0.015216
16	N	0.371273	0.220153	0.015831
17	C	0.31813	0.195132	0.014047
18	N	0.293564	0.141967	0.012066
19	C	0.289908	0.222593	0.014397
20	C	0.234556	0.195781	0.014256
21	C	0.205258	0.222062	0.014775
22	C	0.231221	0.277983	0.014955
23	C	0.286793	0.304648	0.34816
24	H	0.214345	0.155739	0.014122
25	C	0.31524	0.277898	0.34813
26	H	0.307871	0.344659	0.348384
27	H	0.355215	0.299726	0.34813
28	N	0.149906	0.19153	0.015047
29	O	0.132329	0.163279	0.98083
30	O	0.132893	0.163288	0.049323
31	C	0.292095	0.058779	0.010721
32	C	0.237112	0.031025	0.010014
33	C	0.207623	0.475818	0.011897
34	C	0.232916	0.445314	0.013719
35	C	0.288487	0.473561	0.346433
36	H	0.217138	0.051096	0.008838
37	C	0.317328	0.02872	0.34519
38	H	0.309166	0.454242	0.347619
39	H	0.357284	0.04672	0.345644
40	N	0.152796	0.453123	0.011927
41	O	0.136713	0.462641	0.976129
42	O	0.137627	0.469241	0.044511
43	C	0.454453	0.221838	0.01747
44	C	0.481851	0.275902	0.026154
45	C	0.067613	0.28093	0.019694
46	C	0.039578	0.225916	0.346292
47	H	0.46142	0.294847	0.032416
48	C	0.484531	0.197073	0.34524
49	H	0.058918	0.205806	0.340672
50	H	0.466746	0.157755	0.339085
51	N	0.060031	0.358773	0.03903
52	O	0.042917	0.381951	0.014896
53	O	0.050879	0.363911	0.0792
54	C	0.205384	0.389515	0.348932
55	N	0.152209	0.361509	0.350984
56	C	0.123332	0.308449	0.351809
57	N	0.151267	0.283167	0.350285
58	C	0.204462	0.30716	0.348889
59	N	0.23001	0.360669	0.348244
60	C	0.319129	0.11412	0.344682
61	N	0.372065	0.141773	0.346105
62	C	0.399254	0.19472	0.348548
63	N	0.371273	0.220153	0.349163
64	C	0.31813	0.195132	0.347382
65	N	0.293564	0.141967	0.3454
66	C	0.289908	0.222593	0.347729
67	C	0.234556	0.195781	0.347589
68	C	0.205258	0.222062	0.348107
69	C	0.231221	0.277983	0.348287
70	C	0.286793	0.304648	0.681491
71	H	0.214345	0.155739	0.347455
72	C	0.31524	0.277898	0.681461
73	H	0.307871	0.344659	0.681715
74	H	0.355215	0.299726	0.681461
75	N	0.149906	0.19153	0.348381
76	O	0.132329	0.163279	0.314163
77	O	0.132893	0.163288	0.382657
78	C	0.292095	0.058779	0.344054
79	C	0.237112	0.031025	0.343348
80	C	0.207623	0.475818	0.34523
81	C	0.232916	0.445314	0.347054
82	C	0.288487	0.473561	0.679767
83	H	0.217138	0.051096	0.342172
84	C	0.317328	0.02872	0.678524
85	H	0.309166	0.454242	0.680953
86	H	0.357284	0.04672	0.678978
87	N	0.152796	0.453123	0.34526
88	O	0.136713	0.462641	0.309463
89	O	0.137627	0.469241	0.377845
90	C	0.454453	0.221838	0.350803
91	C	0.481851	0.275902	0.359487
92	C	0.067613	0.28093	0.353029
93	C	0.039578	0.225916	0.679627
94	H	0.46142	0.294847	0.365749
95	C	0.484531	0.197073	0.678574
96	H	0.058918	0.205806	0.674006
97	H	0.466746	0.157755	0.672416
98	N	0.060031	0.358773	0.372365
99	O	0.042917	0.381951	0.34823
100	O	0.050879	0.363911	0.412532
101	C	0.205384	0.389515	0.682266
102	N	0.152209	0.361509	0.684318
103	C	0.123332	0.308449	0.68514
104	N	0.151267	0.283167	0.683616
105	C	0.204462	0.30716	0.682223
106	N	0.23001	0.360669	0.681575
107	C	0.319129	0.11412	0.678016
108	N	0.372065	0.141773	0.679439
109	C	0.399254	0.19472	0.681882
110	N	0.371273	0.220153	0.682497
111	C	0.31813	0.195132	0.680713
112	N	0.293564	0.141967	0.678734
113	C	0.289908	0.222593	0.681063
114	C	0.234556	0.195781	0.680923
115	C	0.205258	0.222062	0.681441
116	C	0.231221	0.277983	0.681621
117	C	0.286793	0.304648	0.014826
118	H	0.214345	0.155739	0.680789
119	C	0.31524	0.277898	0.014796
120	H	0.307871	0.344659	0.015049
121	H	0.355215	0.299726	0.014796
122	N	0.149906	0.19153	0.681715
123	O	0.132329	0.163279	0.647496
124	O	0.132893	0.163288	0.715991
125	C	0.292095	0.058779	0.677388
126	C	0.237112	0.031025	0.676683
127	C	0.207623	0.475818	0.678564
128	C	0.232916	0.445314	0.680385
129	C	0.288487	0.473561	0.0131
130	H	0.217138	0.051096	0.675507
131	C	0.317328	0.02872	0.011857
132	H	0.309166	0.454242	0.014285
133	H	0.357284	0.04672	0.01231
134	N	0.152796	0.453123	0.678594
135	O	0.136713	0.462641	0.642794
136	O	0.137627	0.469241	0.711179
137	C	0.454453	0.221838	0.684137
138	C	0.481851	0.275902	0.692822
139	C	0.067613	0.28093	0.68636
140	C	0.039578	0.225916	0.01296
141	H	0.46142	0.294847	0.699084
142	C	0.484531	0.197073	0.011906
143	H	0.058918	0.205806	0.007339
144	H	0.466746	0.157755	0.005751
145	N	0.060031	0.358773	0.705696
146	O	0.042917	0.381951	0.681565
147	O	0.050879	0.363911	0.745866
148	C	0.205385	0.889516	0.015603
149	N	0.152211	0.861512	0.017655
150	C	0.123333	0.808449	0.018477
151	N	0.151268	0.783167	0.016953
152	C	0.204464	0.807161	0.015557
153	N	0.230011	0.86067	0.014911
154	C	0.319129	0.614119	0.011349
155	N	0.372067	0.641775	0.012772
156	C	0.399255	0.694721	0.015216
157	N	0.371275	0.720155	0.015832
158	C	0.318131	0.695132	0.014047
159	N	0.293565	0.641967	0.012065
160	C	0.289909	0.722592	0.014397
161	C	0.234557	0.695781	0.014256
162	C	0.20526	0.722064	0.014775
163	C	0.231223	0.777983	0.014956
164	C	0.286795	0.80465	0.34816
165	H	0.214348	0.655742	0.014121
166	C	0.315241	0.777897	0.34813
167	H	0.307873	0.844661	0.348384
168	H	0.355217	0.799728	0.34813
169	N	0.149908	0.691532	0.015047
170	O	0.132331	0.663281	0.98083
171	O	0.132895	0.663289	0.049322
172	C	0.292096	0.558779	0.010719
173	C	0.237112	0.531025	0.010011
174	C	0.207624	0.975818	0.011901
175	C	0.232917	0.945314	0.013722
176	C	0.288487	0.973561	0.346436
177	H	0.21714	0.551099	0.008835
178	C	0.317329	0.528721	0.34519
179	H	0.309169	0.954246	0.347619
180	H	0.357285	0.546721	0.345644
181	N	0.152796	0.953123	0.011933
182	O	0.136713	0.962641	0.976135
183	O	0.137627	0.969242	0.044518
184	C	0.454453	0.721837	0.017472
185	C	0.481853	0.775902	0.026158
186	C	0.067614	0.780929	0.019697
187	C	0.03958	0.725918	0.346292
188	H	0.461421	0.794845	0.032422
189	C	0.484532	0.697072	0.34524
190	H	0.058921	0.705808	0.340672
191	H	0.466747	0.657757	0.339082
192	N	0.060031	0.858773	0.039038
193	O	0.042917	0.881954	0.014907
194	O	0.050881	0.863906	0.079209
195	C	0.205385	0.889516	0.348935
196	N	0.152211	0.861512	0.350987
197	C	0.123333	0.808449	0.351812
198	N	0.151268	0.783167	0.350285
199	C	0.204464	0.807161	0.348889
200	N	0.230011	0.86067	0.348244
201	C	0.319129	0.614119	0.344682
202	N	0.372067	0.641775	0.346105
203	C	0.399255	0.694721	0.348551
204	N	0.371275	0.720155	0.349166
205	C	0.318131	0.695132	0.347382
206	N	0.293565	0.641967	0.3454
207	C	0.289909	0.722592	0.347729
208	C	0.234557	0.695781	0.347589
209	C	0.20526	0.722064	0.348107
210	C	0.231223	0.777983	0.34829
211	C	0.286795	0.80465	0.681494
212	H	0.214348	0.655742	0.347455
213	C	0.315241	0.777897	0.681464
214	H	0.307873	0.844661	0.681718
215	H	0.355217	0.799728	0.681464
216	N	0.149908	0.691532	0.348381
217	O	0.132331	0.663281	0.314161
218	O	0.132895	0.663289	0.382653
219	C	0.292096	0.558779	0.344054
220	C	0.237112	0.531025	0.343345
221	C	0.207624	0.975818	0.345233
222	C	0.232917	0.945314	0.347054
223	C	0.288487	0.973561	0.67977
224	H	0.21714	0.551099	0.342169
225	C	0.317329	0.528721	0.678524
226	H	0.309169	0.954246	0.680953
227	H	0.357285	0.546721	0.678978
228	N	0.152796	0.953123	0.345266
229	O	0.136713	0.962641	0.309469
230	O	0.137627	0.969242	0.377852
231	C	0.454453	0.721837	0.350806
232	C	0.481853	0.775902	0.359491
233	C	0.067614	0.780929	0.353032
234	C	0.03958	0.725918	0.679627
235	H	0.461421	0.794845	0.365756
236	C	0.484532	0.697072	0.678574
237	H	0.058921	0.705808	0.674006
238	H	0.466747	0.657757	0.672416
239	N	0.060031	0.858773	0.372372
240	O	0.042917	0.881954	0.34824
241	O	0.050881	0.863906	0.412542
242	C	0.205385	0.889516	0.68227
243	N	0.152211	0.861512	0.684321
244	C	0.123333	0.808449	0.685143
245	N	0.151268	0.783167	0.68362
246	C	0.204464	0.807161	0.682223
247	N	0.230011	0.86067	0.681578
248	C	0.319129	0.614119	0.678016
249	N	0.372067	0.641775	0.679439
250	C	0.399255	0.694721	0.681882
251	N	0.371275	0.720155	0.6825
252	C	0.318131	0.695132	0.680713
253	N	0.293565	0.641967	0.678731
254	C	0.289909	0.722592	0.681063
255	C	0.234557	0.695781	0.680923
256	C	0.20526	0.722064	0.681441
257	C	0.231223	0.777983	0.681621
258	C	0.286795	0.80465	0.014827
259	H	0.214348	0.655742	0.680789
260	C	0.315241	0.777897	0.014797
261	H	0.307873	0.844661	0.015052
262	H	0.355217	0.799728	0.014797
263	N	0.149908	0.691532	0.681715
264	O	0.132331	0.663281	0.647496
265	O	0.132895	0.663289	0.715988
266	C	0.292096	0.558779	0.677388
267	C	0.237112	0.531025	0.676679
268	C	0.207624	0.975818	0.678567
269	C	0.232917	0.945314	0.680388
270	C	0.288487	0.973561	0.013102
271	H	0.21714	0.551099	0.6755
272	C	0.317329	0.528721	0.011856
273	H	0.309169	0.954246	0.014286
274	H	0.357285	0.546721	0.01231
275	N	0.152796	0.953123	0.678601
276	O	0.136713	0.962641	0.642801
277	O	0.137627	0.969242	0.711186
278	C	0.454453	0.721837	0.684137
279	C	0.481853	0.775902	0.692825
280	C	0.067614	0.780929	0.686363
281	C	0.03958	0.725918	0.01296
282	H	0.461421	0.794845	0.69909
283	C	0.484532	0.697072	0.011906
284	H	0.058921	0.705808	0.007338
285	H	0.466747	0.657757	0.005749
286	N	0.060031	0.858773	0.705706
287	O	0.042917	0.881954	0.681575
288	O	0.050881	0.863906	0.745876
289	C	0.705386	0.389515	0.0156
290	N	0.652209	0.361509	0.017652
291	C	0.623331	0.308449	0.018474
292	N	0.651267	0.283167	0.016951
293	C	0.704463	0.30716	0.015555
294	N	0.730009	0.360669	0.014909
295	C	0.819129	0.11412	0.01135
296	N	0.872065	0.141773	0.012772
297	C	0.899254	0.19472	0.015216
298	N	0.871274	0.220153	0.015831
299	C	0.818129	0.195132	0.014047
300	N	0.793563	0.141967	0.012066
301	C	0.789907	0.222593	0.014397
302	C	0.734556	0.195781	0.014256
303	C	0.70526	0.222062	0.014775
304	C	0.731221	0.277983	0.014955
305	C	0.786794	0.304648	0.34816
306	H	0.714345	0.155739	0.014122
307	C	0.815239	0.277898	0.34813
308	H	0.80787	0.344659	0.348384
309	H	0.855217	0.299726	0.34813
310	N	0.649905	0.19153	0.015047
311	O	0.63233	0.163279	0.98083
312	O	0.632894	0.163288	0.049323
313	C	0.792095	0.058779	0.010721
314	C	0.737113	0.031025	0.010014
315	C	0.707622	0.475818	0.011897
316	C	0.732916	0.445314	0.013719
317	C	0.788487	0.473561	0.346433
318	H	0.717139	0.051096	0.008838
319	C	0.817327	0.02872	0.34519
320	H	0.809165	0.454242	0.347619
321	H	0.857285	0.04672	0.345644
322	N	0.652797	0.453123	0.011927
323	O	0.636713	0.462641	0.976129
324	O	0.637627	0.469241	0.044511
325	C	0.954453	0.221838	0.01747
326	C	0.981851	0.275902	0.026154
327	C	0.537119	0.30546	0.027448
328	C	0.567612	0.28093	0.019694
329	C	0.539577	0.225916	0.346292
330	H	0.961419	0.294847	0.032416
331	C	0.984531	0.197073	0.34524
332	H	0.558917	0.205806	0.340672
333	H	0.966746	0.157755	0.339085
334	N	0.560031	0.358773	0.03903
335	O	0.542916	0.381951	0.014896
336	O	0.55088	0.363911	0.0792
337	C	0.705386	0.389515	0.348932
338	N	0.652209	0.361509	0.350984
339	C	0.623331	0.308449	0.351809
340	N	0.651267	0.283167	0.350285
341	C	0.704463	0.30716	0.348889
342	N	0.730009	0.360669	0.348244
343	C	0.819129	0.11412	0.344682
344	N	0.872065	0.141773	0.346105
345	C	0.899254	0.19472	0.348548
346	N	0.871274	0.220153	0.349163
347	C	0.818129	0.195132	0.347382
348	N	0.793563	0.141967	0.3454
349	C	0.789907	0.222593	0.347729
350	C	0.734556	0.195781	0.347589
351	C	0.70526	0.222062	0.348107
352	C	0.731221	0.277983	0.348287
353	C	0.786794	0.304648	0.681491
354	H	0.714345	0.155739	0.347455
355	C	0.815239	0.277898	0.681461
356	H	0.80787	0.344659	0.681715
357	H	0.855217	0.299726	0.681461
358	N	0.649905	0.19153	0.348381
359	O	0.63233	0.163279	0.314163
360	O	0.632894	0.163288	0.382657
361	C	0.792095	0.058779	0.344054
362	C	0.737113	0.031025	0.343348
363	C	0.707622	0.475818	0.34523
364	C	0.732916	0.445314	0.347054
365	C	0.788487	0.473561	0.679767
366	H	0.717139	0.051096	0.342172
367	C	0.817327	0.02872	0.678524
368	H	0.809165	0.454242	0.680953
369	H	0.857285	0.04672	0.678978
370	N	0.652797	0.453123	0.34526
371	O	0.636713	0.462641	0.309463
372	O	0.637627	0.469241	0.377845
373	C	0.954453	0.221838	0.350803
374	C	0.981851	0.275902	0.359487
375	C	0.537119	0.30546	0.360781
376	C	0.567612	0.28093	0.353029
377	C	0.539577	0.225916	0.679627
378	H	0.961419	0.294847	0.365749
379	C	0.984531	0.197073	0.678574
380	H	0.558917	0.205806	0.674006
381	H	0.966746	0.157755	0.672416
382	N	0.560031	0.358773	0.372365
383	O	0.542916	0.381951	0.34823
384	O	0.55088	0.363911	0.412532
385	C	0.705386	0.389515	0.682266
386	N	0.652209	0.361509	0.684318
387	C	0.623331	0.308449	0.68514
388	N	0.651267	0.283167	0.683616
389	C	0.704463	0.30716	0.682223
390	N	0.730009	0.360669	0.681575
391	C	0.819129	0.11412	0.678016
392	N	0.872065	0.141773	0.679439
393	C	0.899254	0.19472	0.681882
394	N	0.871274	0.220153	0.682497
395	C	0.818129	0.195132	0.680713
396	N	0.793563	0.141967	0.678734
397	C	0.789907	0.222593	0.681063
398	C	0.734556	0.195781	0.680923
399	C	0.70526	0.222062	0.681441
400	C	0.731221	0.277983	0.681621
401	C	0.786794	0.304648	0.014826
402	H	0.714345	0.155739	0.680789
403	C	0.815239	0.277898	0.014796
404	H	0.80787	0.344659	0.015049
405	H	0.855217	0.299726	0.014796
406	N	0.649905	0.19153	0.681715
407	O	0.63233	0.163279	0.647496
408	O	0.632894	0.163288	0.715991
409	C	0.792095	0.058779	0.677388
410	C	0.737113	0.031025	0.676683
411	C	0.707622	0.475818	0.678564
412	C	0.732916	0.445314	0.680385
413	C	0.788487	0.473561	0.0131
414	H	0.717139	0.051096	0.675507
415	C	0.817327	0.02872	0.011857
416	H	0.809165	0.454242	0.014285
417	H	0.857285	0.04672	0.01231
418	N	0.652797	0.453123	0.678594
419	O	0.636713	0.462641	0.642794
420	O	0.637627	0.469241	0.711179
421	C	0.954453	0.221838	0.684137
422	C	0.981851	0.275902	0.692822
423	C	0.537119	0.30546	0.694115
424	C	0.567612	0.28093	0.68636
425	C	0.539577	0.225916	0.01296
426	H	0.961419	0.294847	0.699084
427	C	0.984531	0.197073	0.011906
428	H	0.558917	0.205806	0.007339
429	H	0.966746	0.157755	0.005751
430	N	0.560031	0.358773	0.705696
431	O	0.542916	0.381951	0.681565
432	O	0.55088	0.363911	0.745866
433	C	0.705386	0.889516	0.015603
434	N	0.652211	0.861512	0.017655
435	C	0.623333	0.808449	0.018477
436	N	0.651268	0.783167	0.016953
437	C	0.704464	0.807161	0.015557
438	N	0.730012	0.86067	0.014911
439	C	0.819128	0.614119	0.011349
440	N	0.872066	0.641775	0.012772
441	C	0.899257	0.694721	0.015216
442	N	0.871275	0.720155	0.015832
443	C	0.818133	0.695132	0.014047
444	N	0.793566	0.641967	0.012065
445	C	0.789911	0.722592	0.014397
446	C	0.734556	0.695781	0.014256
447	C	0.705261	0.722064	0.014775
448	C	0.731221	0.777983	0.014956
449	C	0.786795	0.80465	0.34816
450	H	0.714347	0.655742	0.014121
451	C	0.815242	0.777897	0.34813
452	H	0.807875	0.844661	0.348384
453	H	0.855218	0.799728	0.34813
454	N	0.649908	0.691532	0.015047
455	O	0.632332	0.663281	0.98083
456	O	0.632895	0.663289	0.049322
457	C	0.792095	0.558779	0.010719
458	C	0.737113	0.531025	0.010011
459	C	0.707624	0.975818	0.011901
460	C	0.732917	0.945314	0.013722
461	C	0.788487	0.973561	0.346436
462	H	0.717141	0.551099	0.008835
463	C	0.817328	0.528721	0.34519
464	H	0.809169	0.954246	0.347619
465	H	0.857286	0.546721	0.345644
466	N	0.652796	0.953123	0.011933
467	O	0.636711	0.962641	0.976135
468	O	0.637628	0.969242	0.044518
469	C	0.954453	0.721837	0.017472
470	C	0.981854	0.775902	0.026158
471	C	0.53712	0.80546	0.027453
472	C	0.567614	0.780929	0.019697
473	C	0.53958	0.725918	0.346292
474	H	0.961422	0.794845	0.032422
475	C	0.984534	0.697072	0.34524
476	H	0.558921	0.705808	0.340672
477	H	0.966747	0.657757	0.339082
478	N	0.560033	0.858773	0.039038
479	O	0.542919	0.881954	0.014907
480	O	0.550881	0.863906	0.079209
481	C	0.705386	0.889516	0.348935
482	N	0.652211	0.861512	0.350987
483	C	0.623333	0.808449	0.351812
484	N	0.651268	0.783167	0.350285
485	C	0.704464	0.807161	0.348889
486	N	0.730012	0.86067	0.348244
487	C	0.819128	0.614119	0.344682
488	N	0.872066	0.641775	0.346105
489	C	0.899257	0.694721	0.348551
490	N	0.871275	0.720155	0.349166
491	C	0.818133	0.695132	0.347382
492	N	0.793566	0.641967	0.3454
493	C	0.789911	0.722592	0.347729
494	C	0.734556	0.695781	0.347589
495	C	0.705261	0.722064	0.348107
496	C	0.731221	0.777983	0.34829
497	C	0.786795	0.80465	0.681494
498	H	0.714347	0.655742	0.347455
499	C	0.815242	0.777897	0.681464
500	H	0.807875	0.844661	0.681718
501	H	0.855218	0.799728	0.681464
502	N	0.649908	0.691532	0.348381
503	O	0.632332	0.663281	0.314161
504	O	0.632895	0.663289	0.382653
505	C	0.792095	0.558779	0.344054
506	C	0.737113	0.531025	0.343345
507	C	0.707624	0.975818	0.345233
508	C	0.732917	0.945314	0.347054
509	C	0.788487	0.973561	0.67977
510	H	0.717141	0.551099	0.342169
511	C	0.817328	0.528721	0.678524
512	H	0.809169	0.954246	0.680953
513	H	0.857286	0.546721	0.678978
514	N	0.652796	0.953123	0.345266
515	O	0.636711	0.962641	0.309469
516	O	0.637628	0.969242	0.377852
517	C	0.954453	0.721837	0.350806
518	C	0.981854	0.775902	0.359491
519	C	0.53712	0.80546	0.360787
520	C	0.567614	0.780929	0.353032
521	C	0.53958	0.725918	0.679627
522	H	0.961422	0.794845	0.365756
523	C	0.984534	0.697072	0.678574
524	H	0.558921	0.705808	0.674006
525	H	0.966747	0.657757	0.672416
526	N	0.560033	0.858773	0.372372
527	O	0.542919	0.881954	0.34824
528	O	0.550881	0.863906	0.412542
529	C	0.705386	0.889516	0.68227
530	N	0.652211	0.861512	0.684321
531	C	0.623333	0.808449	0.685143
532	N	0.651268	0.783167	0.68362
533	C	0.704464	0.807161	0.682223
534	N	0.730012	0.86067	0.681578
535	C	0.819128	0.614119	0.678016
536	N	0.872066	0.641775	0.679439
537	C	0.899257	0.694721	0.681882
538	N	0.871275	0.720155	0.6825
539	C	0.818133	0.695132	0.680713
540	N	0.793566	0.641967	0.678731
541	C	0.789911	0.722592	0.681063
542	C	0.734556	0.695781	0.680923
543	C	0.705261	0.722064	0.681441
544	C	0.731221	0.777983	0.681621
545	C	0.786795	0.80465	0.014827
546	H	0.714347	0.655742	0.680789
547	C	0.815242	0.777897	0.014797
548	H	0.807875	0.844661	0.015052
549	H	0.855218	0.799728	0.014797
550	N	0.649908	0.691532	0.681715
551	O	0.632332	0.663281	0.647496
552	O	0.632895	0.663289	0.715988
553	C	0.792095	0.558779	0.677388
554	C	0.737113	0.531025	0.676679
555	C	0.707624	0.975818	0.678567
556	C	0.732917	0.945314	0.680388
557	C	0.788487	0.973561	0.013102
558	H	0.717141	0.551099	0.6755
559	C	0.817328	0.528721	0.011856
560	H	0.809169	0.954246	0.014286
561	H	0.857286	0.546721	0.01231
562	N	0.652796	0.953123	0.678601
563	O	0.636711	0.962641	0.642801
564	O	0.637628	0.969242	0.711186
565	C	0.954453	0.721837	0.684137
566	C	0.981854	0.775902	0.692825
567	C	0.53712	0.80546	0.694118
568	C	0.567614	0.780929	0.686363
569	C	0.53958	0.725918	0.01296
570	H	0.961422	0.794845	0.69909
571	C	0.984534	0.697072	0.011906
572	H	0.558921	0.705808	0.007338
573	H	0.966747	0.657757	0.005749
574	N	0.560033	0.858773	0.705706
575	O	0.542919	0.881954	0.681575
576	O	0.550881	0.863906	0.745876
