data_C288H144N144O36_2018-02-15_10:38:05
#******************************************
#
# CIF file created by Zeo++
# Zeo++ is an open source package to
# analyze microporous materials
#
#*******************************************

_cell_length_a		28.9026   
_cell_length_b		28.9026   
_cell_length_c		29.5322   
_cell_angle_alpha		90   
_cell_angle_beta		90   
_cell_angle_gamma		120   

_symmetry_space_group_name_H-M		'P1'
_symmetry_Int_Tables_number		1
_symmetry_cell_setting		Monoclinic

loop_
_symmetry_equiv_pos_as_xyz
'+x,+y,+z'

loop_
_atom_site_label
_atom_site_type_symbol
_atom_site_fract_x
_atom_site_fract_y
_atom_site_fract_z
1	N	0.045968	0.313309	0.034689
2	N	0.038004	0.733058	0.023718
3	C	0.040655	0.229308	0.362855
4	C	0.072134	0.285443	0.030797
5	H	0.05713	0.205333	0.360041
6	C	0.040655	0.229308	0.696189
7	C	0.072134	0.285443	0.364131
8	N	0.045968	0.313309	0.368022
9	H	0.05713	0.205333	0.693375
10	C	0.040655	0.229308	0.029522
11	C	0.072134	0.285443	0.697466
12	N	0.045968	0.313309	0.701356
13	H	0.05713	0.205333	0.026707
14	C	0.032812	0.811862	0.352896
15	C	0.064277	0.787188	0.021002
16	H	0.049372	0.852413	0.351352
17	C	0.032812	0.811862	0.68623
18	C	0.064277	0.787188	0.354335
19	N	0.038004	0.733058	0.357051
20	H	0.049372	0.852413	0.684686
21	C	0.032812	0.811862	0.019562
22	C	0.064277	0.787188	0.687669
23	N	0.038004	0.733058	0.690385
24	H	0.049372	0.852413	0.018018
25	O	0.989062	0.363882	0.017568
26	O	0.989062	0.363882	0.350902
27	O	0.989062	0.363882	0.684236
28	O	0.979039	0.625852	0.002346
29	O	0.979039	0.625852	0.335678
30	O	0.979039	0.625852	0.669012
31	N	0.155136	0.367638	0.027665
32	C	0.128053	0.313453	0.027953
33	N	0.156611	0.28796	0.025133
34	N	0.155136	0.367638	0.360999
35	C	0.128053	0.313453	0.361287
36	N	0.156611	0.28796	0.358466
37	N	0.155136	0.367638	0.694333
38	C	0.128053	0.313453	0.694618
39	N	0.156611	0.28796	0.691801
40	N	0.148913	0.869456	0.022344
41	C	0.120298	0.815222	0.022115
42	N	0.147229	0.787995	0.02505
43	N	0.148913	0.869456	0.355676
44	C	0.120298	0.815222	0.355449
45	N	0.147229	0.787995	0.358385
46	N	0.148913	0.869456	0.68901
47	C	0.120298	0.815222	0.68878
48	N	0.147229	0.787995	0.691716
49	C	0.324242	0.120166	0.030101
50	N	0.378279	0.150486	0.032117
51	C	0.404147	0.204774	0.032268
52	N	0.373817	0.228462	0.02981
53	C	0.319682	0.200184	0.02771
54	N	0.296205	0.14623	0.027795
55	C	0.289766	0.226419	0.025472
56	N	0.210933	0.233089	0.025191
57	C	0.233054	0.201286	0.026927
58	C	0.198786	0.147183	0.033738
59	C	0.296707	0.06391	0.029777
60	N	0.206125	0.477025	0.030541
61	C	0.319863	0.03083	0.034564
62	C	0.373241	0.04948	0.044118
63	C	0.460364	0.234563	0.033586
64	C	0.492021	0.291198	0.036366
65	C	0.471991	0.325347	0.042995
66	C	0.311708	0.620143	0.027838
67	N	0.365818	0.646203	0.025651
68	C	0.396328	0.700154	0.026059
69	N	0.370497	0.728435	0.028624
70	C	0.316472	0.704748	0.03097
71	N	0.288028	0.65047	0.030281
72	C	0.290039	0.734512	0.032797
73	N	0.283156	0.81322	0.035008
74	C	0.31499	0.791087	0.036316
75	C	0.36912	0.825102	0.043324
76	C	0.282946	0.563891	0.027296
77	N	0.286649	0.977029	0.032869
78	C	0.226696	0.530827	0.031987
79	C	0.191902	0.549477	0.041231
80	C	0.452496	0.726398	0.024053
81	C	0.484057	0.701224	0.024861
82	C	0.464131	0.64691	0.030254
83	C	0.824243	0.120166	0.030101
84	N	0.878278	0.150486	0.032117
85	C	0.904149	0.204774	0.032268
86	N	0.873817	0.228462	0.02981
87	C	0.819681	0.200184	0.02771
88	N	0.796205	0.14623	0.027795
89	C	0.789764	0.226419	0.025472
90	N	0.710934	0.233089	0.025191
91	C	0.733053	0.201286	0.026927
92	C	0.698784	0.147183	0.033738
93	C	0.796706	0.06391	0.029777
94	N	0.706124	0.477025	0.030541
95	C	0.819862	0.03083	0.034564
96	C	0.873241	0.04948	0.044118
97	C	0.960365	0.234563	0.033586
98	N	0.545969	0.313309	0.034689
99	C	0.992021	0.291198	0.036366
100	C	0.971992	0.325347	0.042995
101	C	0.811708	0.620143	0.027838
102	N	0.865817	0.646203	0.025651
103	C	0.896329	0.700154	0.026059
104	N	0.870497	0.728435	0.028624
105	C	0.816471	0.704748	0.03097
106	N	0.788027	0.65047	0.030281
107	C	0.790038	0.734512	0.032797
108	N	0.783154	0.81322	0.035008
109	C	0.81499	0.791087	0.036316
110	C	0.869119	0.825102	0.043324
111	C	0.782945	0.563891	0.027296
112	N	0.786649	0.977029	0.032869
113	C	0.726697	0.530827	0.031987
114	C	0.691901	0.549477	0.041231
115	C	0.952495	0.726398	0.024053
116	N	0.538004	0.733058	0.023718
117	C	0.984057	0.701224	0.024861
118	C	0.964131	0.64691	0.030254
119	C	0.20914	0.396353	0.024182
120	C	0.210746	0.315156	0.021886
121	N	0.236341	0.369389	0.021318
122	N	0.317556	0.280664	0.35509
123	C	0.294857	0.311753	0.35275
124	C	0.238742	0.287122	0.021355
125	H	0.318817	0.352248	0.350407
126	C	0.185618	0.129264	0.080308
127	H	0.165246	0.085707	0.081795
128	H	0.159462	0.142548	0.094879
129	H	0.221689	0.144738	0.101031
130	O	0.161816	0.125241	0.006829
131	N	0.24275	0.03889	0.357305
132	C	0.290907	0.485291	0.353468
133	C	0.235203	0.452331	0.02456
134	H	0.315782	0.470061	0.349083
135	C	0.388734	0.055262	0.091364
136	H	0.432194	0.07733	0.094314
137	H	0.373515	0.016155	0.107177
138	H	0.373315	0.077491	0.109922
139	O	0.395274	0.032705	0.019015
140	N	0.486841	0.206727	0.363965
141	C	0.464091	0.335961	0.089562
142	H	0.441199	0.356632	0.090566
143	H	0.502443	0.360853	0.106249
144	H	0.441714	0.298705	0.108655
145	O	0.489061	0.363882	0.017568
146	C	0.20914	0.396353	0.357515
147	C	0.210746	0.315156	0.355219
148	N	0.236341	0.369389	0.35465
149	C	0.324242	0.120166	0.363434
150	N	0.378279	0.150486	0.365452
151	C	0.404147	0.204774	0.365601
152	N	0.373817	0.228462	0.363142
153	C	0.319682	0.200184	0.361043
154	N	0.296205	0.14623	0.361128
155	C	0.289766	0.226419	0.358805
156	N	0.317556	0.280664	0.688425
157	C	0.294857	0.311753	0.686081
158	C	0.238742	0.287122	0.354687
159	N	0.210933	0.233089	0.358524
160	C	0.233054	0.201286	0.360261
161	H	0.318817	0.352248	0.683742
162	C	0.198786	0.147183	0.36707
163	C	0.185618	0.129264	0.413643
164	H	0.165246	0.085707	0.41513
165	H	0.159462	0.142548	0.428214
166	H	0.221689	0.144738	0.434363
167	O	0.161816	0.125241	0.340161
168	C	0.296707	0.06391	0.363112
169	N	0.24275	0.03889	0.690639
170	C	0.290907	0.485291	0.686803
171	C	0.235203	0.452331	0.357894
172	N	0.206125	0.477025	0.363874
173	C	0.319863	0.03083	0.367897
174	H	0.315782	0.470061	0.682418
175	C	0.373241	0.04948	0.377452
176	C	0.388734	0.055262	0.424696
177	H	0.432194	0.07733	0.427648
178	H	0.373515	0.016155	0.440509
179	H	0.373315	0.077491	0.443255
180	O	0.395274	0.032705	0.352347
181	C	0.460364	0.234563	0.366918
182	N	0.486841	0.206727	0.6973
183	C	0.492021	0.291198	0.369698
184	C	0.471991	0.325347	0.376328
185	C	0.464091	0.335961	0.422894
186	H	0.441199	0.356632	0.4239
187	H	0.502443	0.360853	0.439581
188	H	0.441714	0.298705	0.441989
189	O	0.489061	0.363882	0.350902
190	C	0.20914	0.396353	0.690849
191	C	0.210746	0.315156	0.688553
192	N	0.236341	0.369389	0.687984
193	C	0.324242	0.120166	0.696768
194	N	0.378279	0.150486	0.698783
195	C	0.404147	0.204774	0.698935
196	N	0.373817	0.228462	0.696477
197	C	0.319682	0.200184	0.694377
198	N	0.296205	0.14623	0.694462
199	C	0.289766	0.226419	0.692139
200	N	0.317556	0.280664	0.021758
201	C	0.294857	0.311753	0.019416
202	C	0.238742	0.287122	0.688022
203	N	0.210933	0.233089	0.691858
204	C	0.233054	0.201286	0.693595
205	H	0.318817	0.352248	0.017073
206	C	0.198786	0.147183	0.700405
207	C	0.185618	0.129264	0.746974
208	H	0.165246	0.085707	0.748461
209	H	0.159462	0.142548	0.761545
210	H	0.221689	0.144738	0.767697
211	O	0.161816	0.125241	0.673495
212	C	0.296707	0.06391	0.696443
213	N	0.24275	0.03889	0.023972
214	C	0.290907	0.485291	0.020136
215	C	0.235203	0.452331	0.691228
216	N	0.206125	0.477025	0.697208
217	C	0.319863	0.03083	0.701231
218	H	0.315782	0.470061	0.015751
219	C	0.373241	0.04948	0.710783
220	C	0.388734	0.055262	0.75803
221	H	0.432194	0.07733	0.760979
222	H	0.373515	0.016155	0.773843
223	H	0.373315	0.077491	0.776589
224	O	0.395274	0.032705	0.685682
225	C	0.460364	0.234563	0.700252
226	N	0.486841	0.206727	0.030632
227	C	0.492021	0.291198	0.703032
228	C	0.471991	0.325347	0.709662
229	C	0.464091	0.335961	0.756229
230	H	0.441199	0.356632	0.757234
231	H	0.502443	0.360853	0.772915
232	H	0.441714	0.298705	0.775323
233	O	0.489061	0.363882	0.684236
234	C	0.203039	0.896395	0.025684
235	C	0.201245	0.81346	0.028348
236	N	0.228323	0.867646	0.028827
237	N	0.23575	0.70673	0.362885
238	C	0.204514	0.729314	0.362157
239	C	0.229153	0.785422	0.030817
240	H	0.164093	0.705387	0.359025
241	C	0.387282	0.83487	0.090003
242	H	0.372306	0.797388	0.108572
243	H	0.373693	0.859532	0.107062
244	H	0.430878	0.855573	0.091222
245	O	0.390772	0.864079	0.018384
246	N	0.311886	0.53885	0.354975
247	C	0.210175	0.985339	0.355663
248	C	0.232918	0.952367	0.026635
249	H	0.170106	0.970134	0.351057
250	C	0.18148	0.55483	0.088381
251	H	0.218766	0.576755	0.10734
252	H	0.157222	0.515526	0.103882
253	H	0.160093	0.576943	0.091146
254	O	0.153499	0.532981	0.015692
255	N	0.479003	0.780728	0.354711
256	C	0.459424	0.627418	0.076283
257	H	0.438966	0.642248	0.097853
258	H	0.498905	0.640123	0.090579
259	H	0.436154	0.583819	0.076734
260	O	0.479039	0.625852	0.002346
261	C	0.203039	0.896395	0.359018
262	C	0.201245	0.81346	0.361683
263	N	0.228323	0.867646	0.362161
264	C	0.311708	0.620143	0.361172
265	N	0.365818	0.646203	0.358984
266	C	0.396328	0.700154	0.359394
267	N	0.370497	0.728435	0.361957
268	C	0.316472	0.704748	0.364304
269	N	0.288028	0.65047	0.363617
270	C	0.290039	0.734512	0.366129
271	N	0.23575	0.70673	0.696219
272	C	0.204514	0.729314	0.695491
273	C	0.229153	0.785422	0.364152
274	N	0.283156	0.81322	0.36834
275	C	0.31499	0.791087	0.369651
276	H	0.164093	0.705387	0.692359
277	C	0.36912	0.825102	0.376657
278	C	0.387282	0.83487	0.423338
279	H	0.372306	0.797388	0.441907
280	H	0.373693	0.859532	0.440397
281	H	0.430878	0.855573	0.424553
282	O	0.390772	0.864079	0.351718
283	C	0.282946	0.563891	0.36063
284	N	0.311886	0.53885	0.688309
285	C	0.210175	0.985339	0.688993
286	C	0.232918	0.952367	0.35997
287	N	0.286649	0.977029	0.366204
288	C	0.226696	0.530827	0.36532
289	H	0.170106	0.970134	0.684392
290	C	0.191902	0.549477	0.374564
291	C	0.18148	0.55483	0.421716
292	H	0.218766	0.576755	0.440675
293	H	0.157222	0.515526	0.437214
294	H	0.160093	0.576943	0.424479
295	O	0.153499	0.532981	0.349026
296	C	0.452496	0.726398	0.357386
297	N	0.479003	0.780728	0.688045
298	C	0.484057	0.701224	0.358195
299	C	0.464131	0.64691	0.363586
300	C	0.459424	0.627418	0.409617
301	H	0.438966	0.642248	0.431187
302	H	0.498905	0.640123	0.423913
303	H	0.436154	0.583819	0.410068
304	O	0.479039	0.625852	0.335678
305	C	0.203039	0.896395	0.692353
306	C	0.201245	0.81346	0.695014
307	N	0.228323	0.867646	0.695495
308	C	0.311708	0.620143	0.694506
309	N	0.365818	0.646203	0.692319
310	C	0.396328	0.700154	0.692725
311	N	0.370497	0.728435	0.695292
312	C	0.316472	0.704748	0.697638
313	N	0.288028	0.65047	0.696948
314	C	0.290039	0.734512	0.699463
315	N	0.23575	0.70673	0.029551
316	C	0.204514	0.729314	0.028823
317	C	0.229153	0.785422	0.697483
318	N	0.283156	0.81322	0.701675
319	C	0.31499	0.791087	0.702982
320	H	0.164093	0.705387	0.025693
321	C	0.36912	0.825102	0.709991
322	C	0.387282	0.83487	0.756669
323	H	0.372306	0.797388	0.775238
324	H	0.373693	0.859532	0.773728
325	H	0.430878	0.855573	0.757888
326	O	0.390772	0.864079	0.685052
327	C	0.282946	0.563891	0.693961
328	N	0.311886	0.53885	0.021642
329	C	0.210175	0.985339	0.022328
330	C	0.232918	0.952367	0.693301
331	N	0.286649	0.977029	0.699535
332	C	0.226696	0.530827	0.698654
333	H	0.170106	0.970134	0.017726
334	C	0.191902	0.549477	0.707898
335	C	0.18148	0.55483	0.755047
336	H	0.218766	0.576755	0.774006
337	H	0.157222	0.515526	0.770548
338	H	0.160093	0.576943	0.757813
339	O	0.153499	0.532981	0.68236
340	C	0.452496	0.726398	0.69072
341	N	0.479003	0.780728	0.021378
342	C	0.484057	0.701224	0.691526
343	C	0.464131	0.64691	0.69692
344	C	0.459424	0.627418	0.742948
345	H	0.438966	0.642248	0.764521
346	H	0.498905	0.640123	0.757244
347	H	0.436154	0.583819	0.743402
348	O	0.479039	0.625852	0.669012
349	C	0.709141	0.396353	0.024182
350	N	0.655136	0.367638	0.027665
351	C	0.628054	0.313453	0.027953
352	N	0.656612	0.28796	0.025133
353	C	0.710746	0.315156	0.021886
354	N	0.736341	0.369389	0.021318
355	N	0.817555	0.280664	0.35509
356	C	0.794857	0.311753	0.35275
357	C	0.738743	0.287122	0.021355
358	H	0.818817	0.352248	0.350407
359	C	0.685618	0.129264	0.080308
360	H	0.665247	0.085707	0.081795
361	H	0.659463	0.142548	0.094879
362	H	0.721688	0.144738	0.101031
363	O	0.661816	0.125241	0.006829
364	N	0.74275	0.03889	0.357305
365	C	0.790907	0.485291	0.353468
366	C	0.735203	0.452331	0.02456
367	H	0.815781	0.470061	0.349083
368	C	0.888734	0.055262	0.091364
369	H	0.932194	0.07733	0.094314
370	H	0.873515	0.016155	0.107177
371	H	0.873314	0.077491	0.109922
372	O	0.895274	0.032705	0.019015
373	N	0.986841	0.206727	0.363965
374	C	0.540654	0.229308	0.362855
375	C	0.572133	0.285443	0.030797
376	H	0.557131	0.205333	0.360041
377	C	0.964092	0.335961	0.089562
378	H	0.941199	0.356632	0.090566
379	H	0.002442	0.360853	0.106249
380	H	0.941714	0.298705	0.108655
381	C	0.709141	0.396353	0.357515
382	N	0.655136	0.367638	0.360999
383	C	0.628054	0.313453	0.361287
384	N	0.656612	0.28796	0.358466
385	C	0.710746	0.315156	0.355219
386	N	0.736341	0.369389	0.35465
387	C	0.824243	0.120166	0.363434
388	N	0.878278	0.150486	0.365452
389	C	0.904149	0.204774	0.365601
390	N	0.873817	0.228462	0.363142
391	C	0.819681	0.200184	0.361043
392	N	0.796205	0.14623	0.361128
393	C	0.789764	0.226419	0.358805
394	N	0.817555	0.280664	0.688425
395	C	0.794857	0.311753	0.686081
396	C	0.738743	0.287122	0.354687
397	N	0.710934	0.233089	0.358524
398	C	0.733053	0.201286	0.360261
399	H	0.818817	0.352248	0.683742
400	C	0.698784	0.147183	0.36707
401	C	0.685618	0.129264	0.413643
402	H	0.665247	0.085707	0.41513
403	H	0.659463	0.142548	0.428214
404	H	0.721688	0.144738	0.434363
405	O	0.661816	0.125241	0.340161
406	C	0.796706	0.06391	0.363112
407	N	0.74275	0.03889	0.690639
408	C	0.790907	0.485291	0.686803
409	C	0.735203	0.452331	0.357894
410	N	0.706124	0.477025	0.363874
411	C	0.819862	0.03083	0.367897
412	H	0.815781	0.470061	0.682418
413	C	0.873241	0.04948	0.377452
414	C	0.888734	0.055262	0.424696
415	H	0.932194	0.07733	0.427648
416	H	0.873515	0.016155	0.440509
417	H	0.873314	0.077491	0.443255
418	O	0.895274	0.032705	0.352347
419	C	0.960365	0.234563	0.366918
420	N	0.986841	0.206727	0.6973
421	C	0.540654	0.229308	0.696189
422	C	0.572133	0.285443	0.364131
423	N	0.545969	0.313309	0.368022
424	C	0.992021	0.291198	0.369698
425	H	0.557131	0.205333	0.693375
426	C	0.971992	0.325347	0.376328
427	C	0.964092	0.335961	0.422894
428	H	0.941199	0.356632	0.4239
429	H	0.002442	0.360853	0.439581
430	H	0.941714	0.298705	0.441989
431	C	0.709141	0.396353	0.690849
432	N	0.655136	0.367638	0.694333
433	C	0.628054	0.313453	0.694618
434	N	0.656612	0.28796	0.691801
435	C	0.710746	0.315156	0.688553
436	N	0.736341	0.369389	0.687984
437	C	0.824243	0.120166	0.696768
438	N	0.878278	0.150486	0.698783
439	C	0.904149	0.204774	0.698935
440	N	0.873817	0.228462	0.696477
441	C	0.819681	0.200184	0.694377
442	N	0.796205	0.14623	0.694462
443	C	0.789764	0.226419	0.692139
444	N	0.817555	0.280664	0.021758
445	C	0.794857	0.311753	0.019416
446	C	0.738743	0.287122	0.688022
447	N	0.710934	0.233089	0.691858
448	C	0.733053	0.201286	0.693595
449	H	0.818817	0.352248	0.017073
450	C	0.698784	0.147183	0.700405
451	C	0.685618	0.129264	0.746974
452	H	0.665247	0.085707	0.748461
453	H	0.659463	0.142548	0.761545
454	H	0.721688	0.144738	0.767697
455	O	0.661816	0.125241	0.673495
456	C	0.796706	0.06391	0.696443
457	N	0.74275	0.03889	0.023972
458	C	0.790907	0.485291	0.020136
459	C	0.735203	0.452331	0.691228
460	N	0.706124	0.477025	0.697208
461	C	0.819862	0.03083	0.701231
462	H	0.815781	0.470061	0.015751
463	C	0.873241	0.04948	0.710783
464	C	0.888734	0.055262	0.75803
465	H	0.932194	0.07733	0.760979
466	H	0.873515	0.016155	0.773843
467	H	0.873314	0.077491	0.776589
468	O	0.895274	0.032705	0.685682
469	C	0.960365	0.234563	0.700252
470	N	0.986841	0.206727	0.030632
471	C	0.540654	0.229308	0.029522
472	C	0.572133	0.285443	0.697466
473	N	0.545969	0.313309	0.701356
474	C	0.992021	0.291198	0.703032
475	H	0.557131	0.205333	0.026707
476	C	0.971992	0.325347	0.709662
477	C	0.964092	0.335961	0.756229
478	H	0.941199	0.356632	0.757234
479	H	0.002442	0.360853	0.772915
480	H	0.941714	0.298705	0.775323
481	C	0.703039	0.896395	0.025684
482	N	0.648913	0.869456	0.022344
483	C	0.620298	0.815222	0.022115
484	N	0.647229	0.787995	0.02505
485	C	0.701245	0.81346	0.028348
486	N	0.728323	0.867646	0.028827
487	N	0.735749	0.70673	0.362885
488	C	0.704514	0.729314	0.362157
489	C	0.729153	0.785422	0.030817
490	H	0.664093	0.705387	0.359025
491	C	0.887282	0.83487	0.090003
492	H	0.872305	0.797388	0.108572
493	H	0.873691	0.859532	0.107062
494	H	0.930876	0.855573	0.091222
495	O	0.890773	0.864079	0.018384
496	N	0.811885	0.53885	0.354975
497	C	0.710175	0.985339	0.355663
498	C	0.732918	0.952367	0.026635
499	H	0.670106	0.970134	0.351057
500	C	0.681479	0.55483	0.088381
501	H	0.718765	0.576755	0.10734
502	H	0.657222	0.515526	0.103882
503	H	0.660092	0.576943	0.091146
504	O	0.6535	0.532981	0.015692
505	N	0.979003	0.780728	0.354711
506	C	0.532813	0.811862	0.352896
507	C	0.564277	0.787188	0.021002
508	H	0.549373	0.852413	0.351352
509	C	0.959423	0.627418	0.076283
510	H	0.938965	0.642248	0.097853
511	H	0.998903	0.640123	0.090579
512	H	0.936153	0.583819	0.076734
513	C	0.703039	0.896395	0.359018
514	N	0.648913	0.869456	0.355676
515	C	0.620298	0.815222	0.355449
516	N	0.647229	0.787995	0.358385
517	C	0.701245	0.81346	0.361683
518	N	0.728323	0.867646	0.362161
519	C	0.811708	0.620143	0.361172
520	N	0.865817	0.646203	0.358984
521	C	0.896329	0.700154	0.359394
522	N	0.870497	0.728435	0.361957
523	C	0.816471	0.704748	0.364304
524	N	0.788027	0.65047	0.363617
525	C	0.790038	0.734512	0.366129
526	N	0.735749	0.70673	0.696219
527	C	0.704514	0.729314	0.695491
528	C	0.729153	0.785422	0.364152
529	N	0.783154	0.81322	0.36834
530	C	0.81499	0.791087	0.369651
531	H	0.664093	0.705387	0.692359
532	C	0.869119	0.825102	0.376657
533	C	0.887282	0.83487	0.423338
534	H	0.872305	0.797388	0.441907
535	H	0.873691	0.859532	0.440397
536	H	0.930876	0.855573	0.424553
537	O	0.890773	0.864079	0.351718
538	C	0.782945	0.563891	0.36063
539	N	0.811885	0.53885	0.688309
540	C	0.710175	0.985339	0.688993
541	C	0.732918	0.952367	0.35997
542	N	0.786649	0.977029	0.366204
543	C	0.726697	0.530827	0.36532
544	H	0.670106	0.970134	0.684392
545	C	0.691901	0.549477	0.374564
546	C	0.681479	0.55483	0.421716
547	H	0.718765	0.576755	0.440675
548	H	0.657222	0.515526	0.437214
549	H	0.660092	0.576943	0.424479
550	O	0.6535	0.532981	0.349026
551	C	0.952495	0.726398	0.357386
552	N	0.979003	0.780728	0.688045
553	C	0.532813	0.811862	0.68623
554	C	0.564277	0.787188	0.354335
555	N	0.538004	0.733058	0.357051
556	C	0.984057	0.701224	0.358195
557	H	0.549373	0.852413	0.684686
558	C	0.964131	0.64691	0.363586
559	C	0.959423	0.627418	0.409617
560	H	0.938965	0.642248	0.431187
561	H	0.998903	0.640123	0.423913
562	H	0.936153	0.583819	0.410068
563	C	0.703039	0.896395	0.692353
564	N	0.648913	0.869456	0.68901
565	C	0.620298	0.815222	0.68878
566	N	0.647229	0.787995	0.691716
567	C	0.701245	0.81346	0.695014
568	N	0.728323	0.867646	0.695495
569	C	0.811708	0.620143	0.694506
570	N	0.865817	0.646203	0.692319
571	C	0.896329	0.700154	0.692725
572	N	0.870497	0.728435	0.695292
573	C	0.816471	0.704748	0.697638
574	N	0.788027	0.65047	0.696948
575	C	0.790038	0.734512	0.699463
576	N	0.735749	0.70673	0.029551
577	C	0.704514	0.729314	0.028823
578	C	0.729153	0.785422	0.697483
579	N	0.783154	0.81322	0.701675
580	C	0.81499	0.791087	0.702982
581	H	0.664093	0.705387	0.025693
582	C	0.869119	0.825102	0.709991
583	C	0.887282	0.83487	0.756669
584	H	0.872305	0.797388	0.775238
585	H	0.873691	0.859532	0.773728
586	H	0.930876	0.855573	0.757888
587	O	0.890773	0.864079	0.685052
588	C	0.782945	0.563891	0.693961
589	N	0.811885	0.53885	0.021642
590	C	0.710175	0.985339	0.022328
591	C	0.732918	0.952367	0.693301
592	N	0.786649	0.977029	0.699535
593	C	0.726697	0.530827	0.698654
594	H	0.670106	0.970134	0.017726
595	C	0.691901	0.549477	0.707898
596	C	0.681479	0.55483	0.755047
597	H	0.718765	0.576755	0.774006
598	H	0.657222	0.515526	0.770548
599	H	0.660092	0.576943	0.757813
600	O	0.6535	0.532981	0.68236
601	C	0.952495	0.726398	0.69072
602	N	0.979003	0.780728	0.021378
603	C	0.532813	0.811862	0.019562
604	C	0.564277	0.787188	0.687669
605	N	0.538004	0.733058	0.690385
606	C	0.984057	0.701224	0.691526
607	H	0.549373	0.852413	0.018018
608	C	0.964131	0.64691	0.69692
609	C	0.959423	0.627418	0.742948
610	H	0.938965	0.642248	0.764521
611	H	0.998903	0.640123	0.757244
612	H	0.936153	0.583819	0.743402
