data_C288H162N18O36_2018-02-15_10:39:12
#******************************************
#
# CIF file created by Zeo++
# Zeo++ is an open source package to
# analyze microporous materials
#
#*******************************************

_cell_length_a		34.4516   
_cell_length_b		34.4621   
_cell_length_c		29.4696   
_cell_angle_alpha		90   
_cell_angle_beta		90   
_cell_angle_gamma		119.993   

_symmetry_space_group_name_H-M		'P1'
_symmetry_Int_Tables_number		1
_symmetry_cell_setting		Monoclinic

loop_
_symmetry_equiv_pos_as_xyz
'+x,+y,+z'

loop_
_atom_site_label
_atom_site_type_symbol
_atom_site_fract_x
_atom_site_fract_y
_atom_site_fract_z
1	C	0.058445	0.031308	0.010811
2	C	0.034379	0.054677	0.01126
3	C	0.106288	0.055119	0.009925
4	H	0.051627	0.089006	0.011759
5	C	0.467669	0.201524	0.008274
6	C	0.490137	0.248755	0.009923
7	C	0.466693	0.272516	0.012238
8	C	0.419333	0.248104	0.0116
9	C	0.395419	0.200495	0.010873
10	C	0.420264	0.177715	0.009994
11	H	0.402185	0.265235	0.013255
12	H	0.403704	0.143443	0.008566
13	H	0.52454	0.266358	0.009756
14	C	0.769264	0.246001	0.008783
15	C	0.745876	0.199051	0.01406
16	C	0.770475	0.176289	0.014245
17	C	0.817944	0.199837	0.009949
18	H	0.753431	0.142106	0.017153
19	H	0.751536	0.262676	0.008549
20	C	0.819075	0.551576	0.010032
21	H	0.876398	0.615991	0.010819
22	C	0.177756	0.09802	0.050479
23	C	0.130515	0.074716	0.050193
24	C	0.32281	0.142551	0.043413
25	C	0.275504	0.119156	0.043639
26	H	0.339268	0.13535	0.067971
27	H	0.259173	0.095093	0.067859
28	C	0.935276	0.09909	0.048769
29	C	0.959155	0.075741	0.048367
30	C	0.835001	0.143761	0.043469
31	C	0.859082	0.120549	0.043416
32	H	0.812229	0.137131	0.068836
33	H	0.852234	0.097195	0.068204
34	C	0.933787	0.840572	0.047232
35	C	0.957856	0.887782	0.046936
36	C	0.833259	0.695734	0.040621
37	C	0.857187	0.743028	0.040597
38	H	0.809651	0.679421	0.065258
39	H	0.849474	0.759479	0.064703
40	C	0.698317	0.17722	0.017888
41	C	0.678186	0.183975	0.05685
42	C	0.633523	0.175586	0.05438
43	C	0.608244	0.161381	0.01369
44	C	0.567109	0.162377	0.00919
45	C	0.535752	0.150064	0.045202
46	C	0.500064	0.159096	0.04347
47	C	0.84074	0.525601	0.01239
48	C	0.835577	0.499354	0.051486
49	C	0.843815	0.463029	0.04842
50	C	0.869519	0.391116	0.037848
51	C	0.860493	0.346405	0.036621
52	H	0.884525	0.409714	0.066229
53	H	0.867894	0.333669	0.064572
54	C	0.492516	0.320128	0.015015
55	C	0.518815	0.340923	0.054158
56	C	0.554978	0.385588	0.051409
57	C	0.56647	0.410324	0.010353
58	C	0.627268	0.483084	0.041773
59	C	0.672001	0.518756	0.040308
60	C	0.202612	0.103381	0.010408
61	C	0.250768	0.127589	0.010575
62	C	0.347378	0.176153	0.010758
63	C	0.842505	0.176252	0.009961
64	C	0.986983	0.031557	0.009225
65	C	0.106288	0.055119	0.343259
66	C	0.130501	0.059825	0.302688
67	N	0.106551	0.040691	0.262043
68	O	0.11534	0.012075	0.24628
69	C	0.963158	0.055588	0.341539
70	C	0.943071	0.059824	0.301175
71	N	0.9474	0.040275	0.260603
72	O	0.909818	0.011503	0.245337
73	C	0.058445	0.031308	0.344145
74	C	0.034379	0.054677	0.344593
75	C	0.986983	0.031557	0.342557
76	C	0.106288	0.055119	0.676589
77	C	0.130501	0.059825	0.636022
78	N	0.106551	0.040691	0.595377
79	O	0.11534	0.012075	0.579611
80	C	0.963158	0.055588	0.674872
81	C	0.943071	0.059824	0.634509
82	N	0.9474	0.040275	0.593938
83	O	0.909818	0.011503	0.578671
84	C	0.058445	0.031308	0.677478
85	C	0.034379	0.054677	0.677926
86	C	0.986983	0.031557	0.67589
87	C	0.130501	0.059825	0.969356
88	N	0.106551	0.040691	0.92871
89	O	0.11534	0.012075	0.912945
90	C	0.963158	0.055588	0.008206
91	C	0.943071	0.059824	0.967842
92	N	0.9474	0.040275	0.927268
93	O	0.909818	0.011503	0.912005
94	C	0.963664	0.984163	0.007222
95	C	0.986801	0.959876	0.00786
96	C	0.034203	0.983905	0.009339
97	H	0.929343	0.96709	0.005885
98	H	0.05131	0.966671	0.008946
99	C	0.816304	0.270684	0.004175
100	C	0.840288	0.247249	0.005281
101	H	0.874485	0.265067	0.002546
102	C	0.747195	0.550813	0.005956
103	C	0.771871	0.528251	0.007765
104	C	0.842111	0.598928	0.009317
105	C	0.818511	0.62295	0.008511
106	C	0.770877	0.598207	0.007571
107	H	0.753225	0.614829	0.00598
108	H	0.755007	0.493852	0.007575
109	C	0.178096	0.084052	0.303419
110	C	0.202612	0.103381	0.343741
111	H	0.193962	0.111918	0.080324
112	H	0.113859	0.071834	0.079899
113	C	0.250768	0.127589	0.343907
114	C	0.275457	0.160837	0.310916
115	C	0.322739	0.18499	0.311327
116	C	0.347378	0.176153	0.34409
117	H	0.259107	0.16852	0.286663
118	H	0.339138	0.208741	0.286838
119	H	0.194994	0.086851	0.273922
120	O	0.115203	0.070067	0.232327
121	C	0.919754	0.084109	0.30201
122	C	0.915163	0.103965	0.342251
123	H	0.933448	0.113358	0.078557
124	H	0.973276	0.073157	0.077963
125	C	0.891099	0.128085	0.342652
126	C	0.898313	0.160321	0.308929
127	C	0.874895	0.184197	0.309506
128	C	0.842505	0.176252	0.343293
129	H	0.921464	0.167362	0.283865
130	H	0.881089	0.206933	0.284226
131	H	0.905201	0.086508	0.272666
132	O	0.96779	0.069361	0.230543
133	C	0.962784	0.912056	0.339957
134	C	0.94337	0.8879	0.299359
135	C	0.91987	0.840301	0.300091
136	C	0.914392	0.815746	0.340466
137	H	0.931294	0.824366	0.077126
138	H	0.97148	0.904387	0.076702
139	C	0.890307	0.76759	0.340762
140	C	0.898834	0.742717	0.307963
141	C	0.875703	0.695443	0.308638
142	C	0.842272	0.670985	0.341498
143	H	0.922824	0.758923	0.283642
144	H	0.883015	0.678912	0.284259
145	H	0.905837	0.823428	0.270571
146	N	0.948434	0.911959	0.25875
147	O	0.911128	0.903352	0.242845
148	O	0.969196	0.903238	0.229129
149	C	0.628193	0.15233	0.30947
150	C	0.672471	0.160402	0.311329
151	H	0.611545	0.142291	0.279187
152	H	0.686856	0.157395	0.28211
153	C	0.494281	0.180565	0.005366
154	C	0.523978	0.190812	0.301694
155	C	0.559503	0.181767	0.303522
156	H	0.54001	0.136451	0.074311
157	H	0.480539	0.15309	0.071691
158	H	0.522067	0.208158	0.274374
159	H	0.582139	0.19338	0.277455
160	H	0.621025	0.183853	0.08189
161	N	0.704068	0.201201	0.09686
162	O	0.708704	0.238561	0.107684
163	O	0.686613	0.174631	0.129569
164	C	0.856359	0.451289	0.007079
165	C	0.863688	0.479546	0.302592
166	C	0.855784	0.515838	0.305031
167	H	0.872374	0.472346	0.271838
168	H	0.857568	0.532744	0.27581
169	C	0.855251	0.409138	0.002546
170	C	0.837014	0.318115	0.999757
171	C	0.824808	0.336531	0.296664
172	C	0.833844	0.381105	0.298005
173	H	0.806037	0.316518	0.270354
174	H	0.820992	0.391491	0.27252
175	H	0.836747	0.442776	0.0762
176	N	0.819992	0.508604	0.092324
177	O	0.783026	0.476102	0.104519
178	O	0.847801	0.518099	0.123919
179	C	0.537972	0.389699	0.305917
180	C	0.501871	0.345383	0.308017
181	H	0.544886	0.405911	0.275363
182	H	0.484946	0.330518	0.278725
183	C	0.608589	0.451493	0.005909
184	C	0.699641	0.524301	0.002607
185	C	0.680475	0.494529	0.298947
186	C	0.63592	0.458988	0.300546
187	H	0.609184	0.47895	0.070694
188	H	0.685305	0.538262	0.068575
189	H	0.699998	0.496305	0.271924
190	H	0.625197	0.436266	0.274571
191	H	0.575346	0.39851	0.079142
192	N	0.509729	0.315728	0.094724
193	O	0.542383	0.311398	0.10665
194	O	0.500047	0.333593	0.126611
195	C	0.963664	0.984163	0.340555
196	C	0.986801	0.959876	0.341196
197	C	0.034203	0.983905	0.342672
198	H	0.929343	0.96709	0.339218
199	H	0.05131	0.966671	0.342282
200	H	0.051627	0.089006	0.345092
201	C	0.467669	0.201524	0.341607
202	C	0.490137	0.248755	0.343256
203	C	0.466693	0.272516	0.34557
204	C	0.419333	0.248104	0.344932
205	C	0.395419	0.200495	0.344206
206	C	0.420264	0.177715	0.343327
207	H	0.402185	0.265235	0.346588
208	H	0.403704	0.143443	0.341898
209	H	0.52454	0.266358	0.343089
210	C	0.816304	0.270684	0.337508
211	C	0.769264	0.246001	0.342116
212	C	0.745876	0.199051	0.347392
213	C	0.770475	0.176289	0.347579
214	C	0.817944	0.199837	0.343283
215	C	0.840288	0.247249	0.338616
216	H	0.753431	0.142106	0.350487
217	H	0.874485	0.265067	0.33588
218	H	0.751536	0.262676	0.341885
219	C	0.747195	0.550813	0.339291
220	C	0.771871	0.528251	0.341101
221	C	0.819075	0.551576	0.343364
222	C	0.842111	0.598928	0.342652
223	C	0.818511	0.62295	0.341844
224	C	0.770877	0.598207	0.340904
225	H	0.876398	0.615991	0.344152
226	H	0.753225	0.614829	0.339315
227	H	0.755007	0.493852	0.340908
228	C	0.178096	0.084052	0.636752
229	C	0.202612	0.103381	0.677075
230	C	0.177756	0.09802	0.383813
231	C	0.130515	0.074716	0.383528
232	H	0.193962	0.111918	0.413657
233	H	0.113859	0.071834	0.413233
234	C	0.250768	0.127589	0.677241
235	C	0.275457	0.160837	0.644248
236	C	0.322739	0.18499	0.644662
237	C	0.347378	0.176153	0.677424
238	C	0.32281	0.142551	0.376745
239	C	0.275504	0.119156	0.376972
240	H	0.259107	0.16852	0.619995
241	H	0.339138	0.208741	0.620172
242	H	0.339268	0.13535	0.401305
243	H	0.259173	0.095093	0.401193
244	H	0.194994	0.086851	0.607253
245	O	0.115203	0.070067	0.565661
246	C	0.919754	0.084109	0.635343
247	C	0.915163	0.103965	0.675582
248	C	0.935276	0.09909	0.382103
249	C	0.959155	0.075741	0.381699
250	H	0.933448	0.113358	0.411889
251	H	0.973276	0.073157	0.411295
252	C	0.891099	0.128085	0.675985
253	C	0.898313	0.160321	0.642262
254	C	0.874895	0.184197	0.642839
255	C	0.842505	0.176252	0.676627
256	C	0.835001	0.143761	0.376802
257	C	0.859082	0.120549	0.376748
258	H	0.921464	0.167362	0.617199
259	H	0.881089	0.206933	0.617559
260	H	0.812229	0.137131	0.402167
261	H	0.852234	0.097195	0.401536
262	H	0.905201	0.086508	0.605998
263	O	0.96779	0.069361	0.563876
264	C	0.962784	0.912056	0.673288
265	C	0.94337	0.8879	0.63269
266	C	0.91987	0.840301	0.633423
267	C	0.914392	0.815746	0.6738
268	C	0.933787	0.840572	0.380565
269	C	0.957856	0.887782	0.38027
270	H	0.931294	0.824366	0.410461
271	H	0.97148	0.904387	0.410036
272	C	0.890307	0.76759	0.674095
273	C	0.898834	0.742717	0.641295
274	C	0.875703	0.695443	0.641971
275	C	0.842272	0.670985	0.674832
276	C	0.833259	0.695734	0.373955
277	C	0.857187	0.743028	0.373931
278	H	0.922824	0.758923	0.616975
279	H	0.883015	0.678912	0.617593
280	H	0.809651	0.679421	0.398591
281	H	0.849474	0.759479	0.398034
282	H	0.905837	0.823428	0.603904
283	N	0.948434	0.911959	0.592082
284	O	0.911128	0.903352	0.576177
285	O	0.969196	0.903238	0.562461
286	C	0.698317	0.17722	0.35122
287	C	0.678186	0.183975	0.390182
288	C	0.633523	0.175586	0.387712
289	C	0.608244	0.161381	0.347022
290	C	0.628193	0.15233	0.642802
291	C	0.672471	0.160402	0.644662
292	H	0.611545	0.142291	0.61252
293	H	0.686856	0.157395	0.615442
294	C	0.567109	0.162377	0.342523
295	C	0.535752	0.150064	0.378536
296	C	0.500064	0.159096	0.376802
297	C	0.494281	0.180565	0.3387
298	C	0.523978	0.190812	0.635028
299	C	0.559503	0.181767	0.636853
300	H	0.54001	0.136451	0.407644
301	H	0.480539	0.15309	0.405025
302	H	0.522067	0.208158	0.607708
303	H	0.582139	0.19338	0.610789
304	H	0.621025	0.183853	0.415225
305	N	0.704068	0.201201	0.430193
306	O	0.708704	0.238561	0.441018
307	O	0.686613	0.174631	0.462901
308	C	0.84074	0.525601	0.345723
309	C	0.835577	0.499354	0.384821
310	C	0.843815	0.463029	0.381753
311	C	0.856359	0.451289	0.340412
312	C	0.863688	0.479546	0.635924
313	C	0.855784	0.515838	0.638363
314	H	0.872374	0.472346	0.60517
315	H	0.857568	0.532744	0.609144
316	C	0.855251	0.409138	0.33588
317	C	0.869519	0.391116	0.371179
318	C	0.860493	0.346405	0.369954
319	C	0.837014	0.318115	0.33309
320	C	0.824808	0.336531	0.629996
321	C	0.833844	0.381105	0.631339
322	H	0.884525	0.409714	0.399561
323	H	0.867894	0.333669	0.397905
324	H	0.806037	0.316518	0.603687
325	H	0.820992	0.391491	0.605852
326	H	0.836747	0.442776	0.409534
327	N	0.819992	0.508604	0.425656
328	O	0.783026	0.476102	0.437852
329	O	0.847801	0.518099	0.457251
330	C	0.492516	0.320128	0.348349
331	C	0.518815	0.340923	0.387491
332	C	0.554978	0.385588	0.384743
333	C	0.56647	0.410324	0.343687
334	C	0.537972	0.389699	0.639249
335	C	0.501871	0.345383	0.64135
336	H	0.544886	0.405911	0.608696
337	H	0.484946	0.330518	0.612058
338	C	0.608589	0.451493	0.339242
339	C	0.627268	0.483084	0.375106
340	C	0.672001	0.518756	0.37364
341	C	0.699641	0.524301	0.335942
342	C	0.680475	0.494529	0.632279
343	C	0.63592	0.458988	0.633881
344	H	0.609184	0.47895	0.404027
345	H	0.685305	0.538262	0.401909
346	H	0.699998	0.496305	0.605258
347	H	0.625197	0.436266	0.607905
348	H	0.575346	0.39851	0.412476
349	N	0.509729	0.315728	0.428058
350	O	0.542383	0.311398	0.439983
351	O	0.500047	0.333593	0.459946
352	C	0.963664	0.984163	0.673888
353	C	0.986801	0.959876	0.674526
354	C	0.034203	0.983905	0.676006
355	H	0.929343	0.96709	0.672551
356	H	0.05131	0.966671	0.675612
357	H	0.051627	0.089006	0.678425
358	C	0.467669	0.201524	0.67494
359	C	0.490137	0.248755	0.676589
360	C	0.466693	0.272516	0.678904
361	C	0.419333	0.248104	0.678266
362	C	0.395419	0.200495	0.677539
363	C	0.420264	0.177715	0.676661
364	H	0.402185	0.265235	0.679922
365	H	0.403704	0.143443	0.675232
366	H	0.52454	0.266358	0.676423
367	C	0.816304	0.270684	0.670841
368	C	0.769264	0.246001	0.675449
369	C	0.745876	0.199051	0.680726
370	C	0.770475	0.176289	0.680912
371	C	0.817944	0.199837	0.676616
372	C	0.840288	0.247249	0.671951
373	H	0.753431	0.142106	0.683817
374	H	0.874485	0.265067	0.669212
375	H	0.751536	0.262676	0.675215
376	C	0.747195	0.550813	0.672623
377	C	0.771871	0.528251	0.674435
378	C	0.819075	0.551576	0.676698
379	C	0.842111	0.598928	0.675982
380	C	0.818511	0.62295	0.675178
381	C	0.770877	0.598207	0.674238
382	H	0.876398	0.615991	0.677485
383	H	0.753225	0.614829	0.67265
384	H	0.755007	0.493852	0.674241
385	C	0.178096	0.084052	0.970085
386	C	0.177756	0.09802	0.717146
387	C	0.130515	0.074716	0.716858
388	H	0.193962	0.111918	0.746991
389	H	0.113859	0.071834	0.746567
390	C	0.275457	0.160837	0.977581
391	C	0.322739	0.18499	0.977992
392	C	0.32281	0.142551	0.710078
393	C	0.275504	0.119156	0.710305
394	H	0.259107	0.16852	0.953329
395	H	0.339138	0.208741	0.953505
396	H	0.339268	0.13535	0.734639
397	H	0.259173	0.095093	0.734527
398	H	0.194994	0.086851	0.940587
399	O	0.115203	0.070067	0.898992
400	C	0.919754	0.084109	0.968677
401	C	0.915163	0.103965	0.008915
402	C	0.935276	0.09909	0.715436
403	C	0.959155	0.075741	0.715032
404	H	0.933448	0.113358	0.745223
405	H	0.973276	0.073157	0.744629
406	C	0.891099	0.128085	0.009318
407	C	0.898313	0.160321	0.975596
408	C	0.874895	0.184197	0.976173
409	C	0.835001	0.143761	0.710136
410	C	0.859082	0.120549	0.710082
411	H	0.921464	0.167362	0.95053
412	H	0.881089	0.206933	0.950893
413	H	0.812229	0.137131	0.735501
414	H	0.852234	0.097195	0.73487
415	H	0.905201	0.086508	0.939332
416	O	0.96779	0.069361	0.89721
417	C	0.962784	0.912056	0.006621
418	C	0.94337	0.8879	0.966023
419	C	0.91987	0.840301	0.966756
420	C	0.914392	0.815746	0.007134
421	C	0.933787	0.840572	0.713899
422	C	0.957856	0.887782	0.7136
423	H	0.931294	0.824366	0.743791
424	H	0.97148	0.904387	0.743367
425	C	0.890307	0.76759	0.007429
426	C	0.898834	0.742717	0.974629
427	C	0.875703	0.695443	0.975304
428	C	0.842272	0.670985	0.008165
429	C	0.833259	0.695734	0.707289
430	C	0.857187	0.743028	0.707262
431	H	0.922824	0.758923	0.950309
432	H	0.883015	0.678912	0.950927
433	H	0.809651	0.679421	0.731924
434	H	0.849474	0.759479	0.731368
435	H	0.905837	0.823428	0.937238
436	N	0.948434	0.911959	0.925415
437	O	0.911128	0.903352	0.909511
438	O	0.969196	0.903238	0.895795
439	C	0.698317	0.17722	0.684553
440	C	0.678186	0.183975	0.723516
441	C	0.633523	0.175586	0.721045
442	C	0.608244	0.161381	0.680356
443	C	0.628193	0.15233	0.976136
444	C	0.672471	0.160402	0.977995
445	H	0.611545	0.142291	0.945854
446	H	0.686856	0.157395	0.948775
447	C	0.567109	0.162377	0.675856
448	C	0.535752	0.150064	0.711866
449	C	0.500064	0.159096	0.710136
450	C	0.494281	0.180565	0.672032
451	C	0.523978	0.190812	0.968361
452	C	0.559503	0.181767	0.970187
453	H	0.54001	0.136451	0.740978
454	H	0.480539	0.15309	0.738358
455	H	0.522067	0.208158	0.941038
456	H	0.582139	0.19338	0.94412
457	H	0.621025	0.183853	0.748555
458	N	0.704068	0.201201	0.763526
459	O	0.708704	0.238561	0.774351
460	O	0.686613	0.174631	0.796235
461	C	0.84074	0.525601	0.679056
462	C	0.835577	0.499354	0.718154
463	C	0.843815	0.463029	0.715087
464	C	0.856359	0.451289	0.673746
465	C	0.863688	0.479546	0.969257
466	C	0.855784	0.515838	0.971697
467	H	0.872374	0.472346	0.938504
468	H	0.857568	0.532744	0.942477
469	C	0.855251	0.409138	0.669212
470	C	0.869519	0.391116	0.704513
471	C	0.860493	0.346405	0.703288
472	C	0.837014	0.318115	0.666423
473	C	0.824808	0.336531	0.963329
474	C	0.833844	0.381105	0.96467
475	H	0.884525	0.409714	0.732895
476	H	0.867894	0.333669	0.731239
477	H	0.806037	0.316518	0.937021
478	H	0.820992	0.391491	0.939186
479	H	0.836747	0.442776	0.742864
480	N	0.819992	0.508604	0.75899
481	O	0.783026	0.476102	0.771185
482	O	0.847801	0.518099	0.790585
483	C	0.492516	0.320128	0.681679
484	C	0.518815	0.340923	0.720825
485	C	0.554978	0.385588	0.718076
486	C	0.56647	0.410324	0.67702
487	C	0.537972	0.389699	0.972583
488	C	0.501871	0.345383	0.974683
489	H	0.544886	0.405911	0.942029
490	H	0.484946	0.330518	0.945392
491	C	0.608589	0.451493	0.672575
492	C	0.627268	0.483084	0.708439
493	C	0.672001	0.518756	0.706973
494	C	0.699641	0.524301	0.669277
495	C	0.680475	0.494529	0.965613
496	C	0.63592	0.458988	0.967211
497	H	0.609184	0.47895	0.737361
498	H	0.685305	0.538262	0.73524
499	H	0.699998	0.496305	0.938592
500	H	0.625197	0.436266	0.941235
501	H	0.575346	0.39851	0.74581
502	N	0.509729	0.315728	0.761389
503	O	0.542383	0.311398	0.773316
504	O	0.500047	0.333593	0.793276
