data_C288H108N36O36_2018-02-15_10:39:38
#******************************************
#
# CIF file created by Zeo++
# Zeo++ is an open source package to
# analyze microporous materials
#
#*******************************************

_cell_length_a		34.0727   
_cell_length_b		34.0832   
_cell_length_c		29.578   
_cell_angle_alpha		90   
_cell_angle_beta		90   
_cell_angle_gamma		119.993   

_symmetry_space_group_name_H-M		'P1'
_symmetry_Int_Tables_number		1
_symmetry_cell_setting		Monoclinic

loop_
_symmetry_equiv_pos_as_xyz
'+x,+y,+z'

loop_
_atom_site_label
_atom_site_type_symbol
_atom_site_fract_x
_atom_site_fract_y
_atom_site_fract_z
1	C	0.055366	0.029339	0.007954
2	C	0.03104	0.05294	0.007841
3	C	0.983112	0.029334	0.007943
4	C	0.317092	0.160299	0.045377
5	N	0.271095	0.137279	0.043443
6	C	0.129632	0.066468	0.046259
7	H	0.332548	0.168019	0.076307
8	N	0.175603	0.08948	0.043883
9	H	0.114482	0.058878	0.077339
10	C	0.852346	0.160284	0.045346
11	N	0.875315	0.137261	0.043416
12	C	0.945955	0.066442	0.046243
13	H	0.844596	0.167993	0.076275
14	N	0.922998	0.089455	0.043863
15	H	0.9535	0.05884	0.077324
16	C	0.489453	0.175653	0.008414
17	C	0.56608	0.164442	0.010675
18	C	0.546874	0.167952	0.052104
19	C	0.508397	0.173486	0.050218
20	H	0.496307	0.179869	0.079359
21	C	0.607571	0.164414	0.01067
22	C	0.695329	0.175616	0.00839
23	C	0.674263	0.173334	0.050241
24	C	0.630294	0.167908	0.052098
25	C	0.610031	0.169462	0.09331
26	C	0.568677	0.169478	0.093314
27	H	0.692808	0.179882	0.079352
28	O	0.631026	0.173445	0.133366
29	O	0.551702	0.173517	0.133371
30	C	0.959507	0.981418	0.007858
31	C	0.983128	0.957108	0.007968
32	C	0.031058	0.981425	0.007881
33	C	0.85233	0.695457	0.04539
34	N	0.875317	0.741437	0.043459
35	C	0.94602	0.882865	0.046275
36	H	0.844608	0.680002	0.07632
37	N	0.923045	0.836908	0.0439
38	H	0.953599	0.898011	0.077355
39	C	0.83707	0.317333	0.008594
40	C	0.848254	0.405088	0.010763
41	C	0.844801	0.382431	0.052212
42	C	0.83934	0.338465	0.05039
43	H	0.832857	0.319954	0.07951
44	C	0.848253	0.446583	0.010712
45	C	0.837064	0.523161	0.00836
46	C	0.839306	0.504339	0.050212
47	C	0.844792	0.465849	0.052122
48	C	0.843279	0.44409	0.093355
49	C	0.843292	0.402744	0.093403
50	H	0.832861	0.51643	0.079316
51	O	0.839288	0.461116	0.133394
52	O	0.839309	0.381795	0.133482
53	C	0.695291	0.523144	0.008351
54	C	0.607501	0.446566	0.010664
55	C	0.630246	0.465764	0.052083
56	C	0.674246	0.504231	0.050184
57	H	0.692745	0.516321	0.079311
58	C	0.565988	0.405085	0.010677
59	C	0.489429	0.317358	0.008428
60	C	0.508249	0.338416	0.050269
61	C	0.546795	0.382367	0.052111
62	C	0.568637	0.402618	0.093312
63	C	0.610002	0.443961	0.0933
64	H	0.496269	0.319881	0.079383
65	O	0.55166	0.381632	0.133374
66	O	0.631038	0.460927	0.133346
67	H	0.048398	0.087657	0.007245
68	C	0.463118	0.197235	0.006491
69	C	0.390969	0.197268	0.006224
70	C	0.415238	0.1735	0.006376
71	H	0.398052	0.138803	0.006556
72	C	0.743267	0.197219	0.006457
73	C	0.767416	0.173492	0.006312
74	C	0.815457	0.197266	0.006187
75	H	0.749907	0.138794	0.006468
76	C	0.342862	0.173212	0.338532
77	C	0.247157	0.125312	0.337418
78	C	0.271221	0.137373	0.295728
79	C	0.319225	0.161398	0.297014
80	H	0.337336	0.170469	0.267482
81	C	0.199161	0.101287	0.337633
82	C	0.10347	0.053391	0.339675
83	C	0.126704	0.065039	0.297919
84	C	0.174701	0.08906	0.29617
85	C	0.198888	0.101182	0.254866
86	C	0.246662	0.125094	0.254648
87	H	0.108306	0.055847	0.268564
88	O	0.17675	0.090115	0.214725
89	O	0.268446	0.136012	0.214314
90	C	0.839509	0.173215	0.338498
91	C	0.887302	0.125306	0.337392
92	C	0.875321	0.137384	0.295701
93	C	0.851345	0.161411	0.296982
94	H	0.842321	0.170493	0.267449
95	C	0.911269	0.101278	0.337612
96	C	0.959059	0.053382	0.339658
97	C	0.947494	0.065047	0.297903
98	C	0.923521	0.089068	0.296151
99	C	0.911476	0.101207	0.254845
100	C	0.887616	0.125119	0.254623
101	H	0.956713	0.055868	0.268549
102	O	0.922565	0.090156	0.214706
103	O	0.876771	0.136052	0.214287
104	C	0.50945	0.170779	0.301933
105	N	0.546538	0.165889	0.3044
106	C	0.670505	0.17069	0.301877
107	H	0.498897	0.174819	0.270801
108	N	0.628549	0.165856	0.304383
109	H	0.685141	0.174868	0.270751
110	C	0.055366	0.029339	0.341287
111	C	0.03104	0.05294	0.341172
112	C	0.983112	0.029334	0.341277
113	H	0.048398	0.087657	0.340577
114	C	0.463118	0.197235	0.339824
115	C	0.390969	0.197268	0.33956
116	C	0.415238	0.1735	0.339709
117	H	0.398052	0.138803	0.339888
118	C	0.743267	0.197219	0.33979
119	C	0.767416	0.173492	0.339644
120	C	0.815457	0.197266	0.339523
121	H	0.749907	0.138794	0.3398
122	C	0.342862	0.173212	0.671868
123	C	0.317092	0.160299	0.378711
124	N	0.271095	0.137279	0.376777
125	C	0.247157	0.125312	0.670752
126	C	0.271221	0.137373	0.629062
127	C	0.319225	0.161398	0.630347
128	H	0.337336	0.170469	0.600815
129	C	0.199161	0.101287	0.670968
130	C	0.129632	0.066468	0.379593
131	C	0.10347	0.053391	0.673007
132	C	0.126704	0.065039	0.631253
133	H	0.332548	0.168019	0.409642
134	N	0.175603	0.08948	0.377216
135	C	0.174701	0.08906	0.629505
136	C	0.198888	0.101182	0.588201
137	C	0.246662	0.125094	0.587981
138	H	0.108306	0.055847	0.601897
139	H	0.114482	0.058878	0.410673
140	O	0.17675	0.090115	0.548059
141	O	0.268446	0.136012	0.547647
142	C	0.839509	0.173215	0.671834
143	C	0.852346	0.160284	0.37868
144	N	0.875315	0.137261	0.37675
145	C	0.887302	0.125306	0.670725
146	C	0.875321	0.137384	0.629035
147	C	0.851345	0.161411	0.630316
148	H	0.842321	0.170493	0.600781
149	C	0.911269	0.101278	0.670945
150	C	0.945955	0.066442	0.379576
151	C	0.959059	0.053382	0.672993
152	C	0.947494	0.065047	0.631236
153	H	0.844596	0.167993	0.409608
154	N	0.922998	0.089455	0.377196
155	C	0.923521	0.089068	0.629485
156	C	0.911476	0.101207	0.588177
157	C	0.887616	0.125119	0.587957
158	H	0.956713	0.055868	0.601883
159	H	0.9535	0.05884	0.410657
160	O	0.922565	0.090156	0.548039
161	O	0.876771	0.136052	0.54762
162	C	0.489453	0.175653	0.341747
163	C	0.50945	0.170779	0.635266
164	N	0.546538	0.165889	0.637734
165	C	0.56608	0.164442	0.344009
166	C	0.546874	0.167952	0.385438
167	C	0.508397	0.173486	0.383552
168	H	0.496307	0.179869	0.412692
169	C	0.607571	0.164414	0.344002
170	C	0.670505	0.17069	0.635209
171	C	0.695329	0.175616	0.341724
172	C	0.674263	0.173334	0.383576
173	H	0.498897	0.174819	0.604135
174	N	0.628549	0.165856	0.637717
175	C	0.630294	0.167908	0.385432
176	C	0.610031	0.169462	0.426641
177	C	0.568677	0.169478	0.426648
178	H	0.692808	0.179882	0.412685
179	H	0.685141	0.174868	0.604084
180	O	0.631026	0.173445	0.466698
181	O	0.551702	0.173517	0.466705
182	C	0.055366	0.029339	0.67462
183	C	0.03104	0.05294	0.674508
184	C	0.983112	0.029334	0.674609
185	H	0.048398	0.087657	0.67391
186	C	0.463118	0.197235	0.673156
187	C	0.390969	0.197268	0.672892
188	C	0.415238	0.1735	0.673041
189	H	0.398052	0.138803	0.673223
190	C	0.743267	0.197219	0.673122
191	C	0.767416	0.173492	0.67298
192	C	0.815457	0.197266	0.672855
193	H	0.749907	0.138794	0.673135
194	C	0.342862	0.173212	0.0052
195	C	0.317092	0.160299	0.712043
196	N	0.271095	0.137279	0.710109
197	C	0.247157	0.125312	0.004084
198	C	0.271221	0.137373	0.962394
199	C	0.319225	0.161398	0.963679
200	H	0.337336	0.170469	0.934147
201	C	0.199161	0.101287	0.0043
202	C	0.129632	0.066468	0.712925
203	C	0.10347	0.053391	0.006339
204	C	0.126704	0.065039	0.964585
205	H	0.332548	0.168019	0.742974
206	N	0.175603	0.08948	0.710548
207	C	0.174701	0.08906	0.962837
208	C	0.198888	0.101182	0.921533
209	C	0.246662	0.125094	0.921313
210	H	0.108306	0.055847	0.935229
211	H	0.114482	0.058878	0.744006
212	O	0.17675	0.090115	0.881392
213	O	0.268446	0.136012	0.880982
214	C	0.839509	0.173215	0.005166
215	C	0.852346	0.160284	0.712012
216	N	0.875315	0.137261	0.710082
217	C	0.887302	0.125306	0.00406
218	C	0.875321	0.137384	0.962367
219	C	0.851345	0.161411	0.963649
220	H	0.842321	0.170493	0.934117
221	C	0.911269	0.101278	0.00428
222	C	0.945955	0.066442	0.712908
223	C	0.959059	0.053382	0.006326
224	C	0.947494	0.065047	0.964568
225	H	0.844596	0.167993	0.742941
226	N	0.922998	0.089455	0.710531
227	C	0.923521	0.089068	0.962817
228	C	0.911476	0.101207	0.921513
229	C	0.887616	0.125119	0.921289
230	H	0.956713	0.055868	0.935215
231	H	0.9535	0.05884	0.743992
232	O	0.922565	0.090156	0.881371
233	O	0.876771	0.136052	0.880955
234	C	0.489453	0.175653	0.675083
235	C	0.50945	0.170779	0.968598
236	N	0.546538	0.165889	0.971066
237	C	0.56608	0.164442	0.677341
238	C	0.546874	0.167952	0.718771
239	C	0.508397	0.173486	0.716884
240	H	0.496307	0.179869	0.746024
241	C	0.607571	0.164414	0.677338
242	C	0.670505	0.17069	0.968544
243	C	0.695329	0.175616	0.675056
244	C	0.674263	0.173334	0.716908
245	H	0.498897	0.174819	0.937467
246	N	0.628549	0.165856	0.971049
247	C	0.630294	0.167908	0.718764
248	C	0.610031	0.169462	0.759977
249	C	0.568677	0.169478	0.75998
250	H	0.692808	0.179882	0.746017
251	H	0.685141	0.174868	0.937416
252	O	0.631026	0.173445	0.800034
253	O	0.551702	0.173517	0.800037
254	H	0.92478	0.96406	0.00727
255	H	0.048425	0.964067	0.007285
256	C	0.486467	0.245013	0.006491
257	C	0.463096	0.269435	0.006495
258	C	0.415217	0.245294	0.006383
259	H	0.398015	0.262798	0.006569
260	H	0.521264	0.262411	0.00711
261	C	0.815487	0.269425	0.006522
262	C	0.767693	0.244997	0.006498
263	C	0.839231	0.245291	0.0064
264	H	0.873937	0.2628	0.00663
265	H	0.750288	0.262387	0.007182
266	C	0.743219	0.549476	0.006451
267	C	0.767664	0.526129	0.006417
268	C	0.815458	0.549486	0.006471
269	C	0.839184	0.59735	0.006383
270	C	0.815395	0.621599	0.006234
271	C	0.767355	0.597344	0.006373
272	H	0.873893	0.614543	0.006572
273	H	0.749833	0.614529	0.006559
274	H	0.750271	0.491341	0.007029
275	C	0.839442	0.669694	0.338546
276	C	0.887273	0.765371	0.337435
277	C	0.875238	0.741315	0.295745
278	C	0.851247	0.693326	0.297028
279	H	0.842189	0.675222	0.267495
280	C	0.911261	0.813354	0.337651
281	C	0.959083	0.909017	0.339688
282	C	0.947461	0.885788	0.297936
283	C	0.923478	0.837809	0.296188
284	C	0.91138	0.813628	0.254884
285	C	0.887504	0.765869	0.254665
286	H	0.956649	0.90418	0.268581
287	O	0.922438	0.835759	0.214743
288	O	0.876613	0.744093	0.214331
289	C	0.842012	0.342149	0.302048
290	N	0.8468	0.384074	0.304503
291	C	0.841937	0.503174	0.301885
292	H	0.837754	0.32747	0.270938
293	N	0.846782	0.466072	0.304411
294	H	0.837778	0.513648	0.270764
295	C	0.670423	0.503187	0.301874
296	N	0.628454	0.466106	0.304374
297	C	0.509342	0.342162	0.301912
298	H	0.684997	0.51374	0.270738
299	N	0.546429	0.384118	0.304396
300	H	0.498785	0.327559	0.270787
301	C	0.959507	0.981418	0.341193
302	C	0.983128	0.957108	0.341301
303	C	0.031058	0.981425	0.341213
304	H	0.92478	0.96406	0.340604
305	H	0.048425	0.964067	0.340618
306	C	0.486467	0.245013	0.339824
307	C	0.463096	0.269435	0.33983
308	C	0.415217	0.245294	0.339715
309	H	0.398015	0.262798	0.339901
310	H	0.521264	0.262411	0.340446
311	C	0.815487	0.269425	0.339854
312	C	0.767693	0.244997	0.339834
313	C	0.839231	0.245291	0.339736
314	H	0.873937	0.2628	0.339962
315	H	0.750288	0.262387	0.340517
316	C	0.743219	0.549476	0.339783
317	C	0.767664	0.526129	0.339749
318	C	0.815458	0.549486	0.339803
319	C	0.839184	0.59735	0.339715
320	C	0.815395	0.621599	0.339567
321	C	0.767355	0.597344	0.339705
322	H	0.873893	0.614543	0.339905
323	H	0.749833	0.614529	0.339891
324	H	0.750271	0.491341	0.340361
325	C	0.839442	0.669694	0.671878
326	C	0.85233	0.695457	0.378724
327	N	0.875317	0.741437	0.376794
328	C	0.887273	0.765371	0.670769
329	C	0.875238	0.741315	0.629079
330	C	0.851247	0.693326	0.63036
331	H	0.842189	0.675222	0.600828
332	C	0.911261	0.813354	0.670985
333	C	0.94602	0.882865	0.37961
334	C	0.959083	0.909017	0.673024
335	C	0.947461	0.885788	0.63127
336	H	0.844608	0.680002	0.409652
337	N	0.923045	0.836908	0.377233
338	C	0.923478	0.837809	0.629522
339	C	0.91138	0.813628	0.588218
340	C	0.887504	0.765869	0.587998
341	H	0.956649	0.90418	0.601914
342	H	0.953599	0.898011	0.410687
343	O	0.922438	0.835759	0.548076
344	O	0.876613	0.744093	0.547664
345	C	0.83707	0.317333	0.341926
346	C	0.842012	0.342149	0.635381
347	N	0.8468	0.384074	0.637836
348	C	0.848254	0.405088	0.344097
349	C	0.844801	0.382431	0.385547
350	C	0.83934	0.338465	0.383724
351	H	0.832857	0.319954	0.412844
352	C	0.848253	0.446583	0.344046
353	C	0.841937	0.503174	0.635219
354	C	0.837064	0.523161	0.341693
355	C	0.839306	0.504339	0.383545
356	H	0.837754	0.32747	0.60427
357	N	0.846782	0.466072	0.637744
358	C	0.844792	0.465849	0.385455
359	C	0.843279	0.44409	0.426689
360	C	0.843292	0.402744	0.426736
361	H	0.832861	0.51643	0.412648
362	H	0.837778	0.513648	0.604098
363	O	0.839288	0.461116	0.466729
364	O	0.839309	0.381795	0.466817
365	C	0.695291	0.523144	0.341683
366	C	0.670423	0.503187	0.635209
367	N	0.628454	0.466106	0.637707
368	C	0.607501	0.446566	0.343996
369	C	0.630246	0.465764	0.385415
370	C	0.674246	0.504231	0.383518
371	H	0.692745	0.516321	0.412645
372	C	0.565988	0.405085	0.344009
373	C	0.509342	0.342162	0.635246
374	C	0.489429	0.317358	0.341761
375	C	0.508249	0.338416	0.383603
376	H	0.684997	0.51374	0.604071
377	N	0.546429	0.384118	0.637731
378	C	0.546795	0.382367	0.385445
379	C	0.568637	0.402618	0.426645
380	C	0.610002	0.443961	0.426635
381	H	0.496269	0.319881	0.412716
382	H	0.498785	0.327559	0.604121
383	O	0.55166	0.381632	0.466708
384	O	0.631038	0.460927	0.466681
385	C	0.959507	0.981418	0.674525
386	C	0.983128	0.957108	0.674637
387	C	0.031058	0.981425	0.674549
388	H	0.92478	0.96406	0.673937
389	H	0.048425	0.964067	0.673954
390	C	0.486467	0.245013	0.673156
391	C	0.463096	0.269435	0.673162
392	C	0.415217	0.245294	0.673051
393	H	0.398015	0.262798	0.673233
394	H	0.521264	0.262411	0.673778
395	C	0.815487	0.269425	0.67319
396	C	0.767693	0.244997	0.673166
397	C	0.839231	0.245291	0.673068
398	H	0.873937	0.2628	0.673294
399	H	0.750288	0.262387	0.673849
400	C	0.743219	0.549476	0.673119
401	C	0.767664	0.526129	0.673081
402	C	0.815458	0.549486	0.673139
403	C	0.839184	0.59735	0.673051
404	C	0.815395	0.621599	0.672899
405	C	0.767355	0.597344	0.673041
406	H	0.873893	0.614543	0.673237
407	H	0.749833	0.614529	0.673223
408	H	0.750271	0.491341	0.673697
409	C	0.839442	0.669694	0.005213
410	C	0.85233	0.695457	0.712056
411	N	0.875317	0.741437	0.710126
412	C	0.887273	0.765371	0.004101
413	C	0.875238	0.741315	0.962411
414	C	0.851247	0.693326	0.963696
415	H	0.842189	0.675222	0.93416
416	C	0.911261	0.813354	0.004317
417	C	0.94602	0.882865	0.712942
418	C	0.959083	0.909017	0.006356
419	C	0.947461	0.885788	0.964602
420	H	0.844608	0.680002	0.742988
421	N	0.923045	0.836908	0.710565
422	C	0.923478	0.837809	0.962854
423	C	0.91138	0.813628	0.92155
424	C	0.887504	0.765869	0.92133
425	H	0.956649	0.90418	0.935246
426	H	0.953599	0.898011	0.744023
427	O	0.922438	0.835759	0.881408
428	O	0.876613	0.744093	0.880996
429	C	0.83707	0.317333	0.675262
430	C	0.842012	0.342149	0.968717
431	N	0.8468	0.384074	0.971171
432	C	0.848254	0.405088	0.677429
433	C	0.844801	0.382431	0.718879
434	C	0.83934	0.338465	0.717057
435	H	0.832857	0.319954	0.746176
436	C	0.848253	0.446583	0.677378
437	C	0.841937	0.503174	0.968551
438	C	0.837064	0.523161	0.675025
439	C	0.839306	0.504339	0.716877
440	H	0.837754	0.32747	0.937606
441	N	0.846782	0.466072	0.971076
442	C	0.844792	0.465849	0.718788
443	C	0.843279	0.44409	0.760021
444	C	0.843292	0.402744	0.760068
445	H	0.832861	0.51643	0.745983
446	H	0.837778	0.513648	0.93743
447	O	0.839288	0.461116	0.800061
448	O	0.839309	0.381795	0.800149
449	C	0.695291	0.523144	0.675019
450	C	0.670423	0.503187	0.968541
451	N	0.628454	0.466106	0.971039
452	C	0.607501	0.446566	0.677331
453	C	0.630246	0.465764	0.71875
454	C	0.674246	0.504231	0.71685
455	H	0.692745	0.516321	0.745977
456	C	0.565988	0.405085	0.677345
457	C	0.509342	0.342162	0.968578
458	C	0.489429	0.317358	0.675093
459	C	0.508249	0.338416	0.716935
460	H	0.684997	0.51374	0.937406
461	N	0.546429	0.384118	0.971063
462	C	0.546795	0.382367	0.718777
463	C	0.568637	0.402618	0.75998
464	C	0.610002	0.443961	0.759967
465	H	0.496269	0.319881	0.746051
466	H	0.498785	0.327559	0.937453
467	O	0.55166	0.381632	0.800041
468	O	0.631038	0.460927	0.800013
