data_C198H108N18O36_2018-02-15_10:41:13
#******************************************
#
# CIF file created by Zeo++
# Zeo++ is an open source package to
# analyze microporous materials
#
#*******************************************

_cell_length_a		29.8131   
_cell_length_b		29.8131   
_cell_length_c		29.5738   
_cell_angle_alpha		90   
_cell_angle_beta		90   
_cell_angle_gamma		120   

_symmetry_space_group_name_H-M		'P1'
_symmetry_Int_Tables_number		1
_symmetry_cell_setting		Monoclinic

loop_
_symmetry_equiv_pos_as_xyz
'+x,+y,+z'

loop_
_atom_site_label
_atom_site_type_symbol
_atom_site_fract_x
_atom_site_fract_y
_atom_site_fract_z
1	C	0.150605	0.54285	0.026531
2	C	0.121093	0.562343	0.0058
3	C	0.148276	0.609758	0.982046
4	H	0.132651	0.508112	0.043179
5	H	0.128504	0.625309	0.966468
6	C	0.036612	0.524054	0.301486
7	C	0.065626	0.534778	0.008497
8	C	0.038393	0.517283	0.050226
9	H	0.054905	0.535448	0.270837
10	N	0.067914	0.530781	0.090756
11	O	0.059244	0.559683	0.115766
12	O	0.061161	0.491852	0.112832
13	C	0.150605	0.54285	0.359863
14	C	0.121093	0.562343	0.339135
15	C	0.148276	0.609758	0.315382
16	H	0.132651	0.508112	0.376513
17	H	0.128504	0.625309	0.299802
18	C	0.036612	0.524054	0.634819
19	C	0.065626	0.534778	0.34183
20	C	0.038393	0.517283	0.38356
21	H	0.054905	0.535448	0.604171
22	N	0.067914	0.530781	0.424089
23	O	0.059244	0.559683	0.449101
24	O	0.061161	0.491852	0.446166
25	C	0.150605	0.54285	0.693199
26	C	0.121093	0.562343	0.672468
27	C	0.148276	0.609758	0.648714
28	H	0.132651	0.508112	0.709845
29	H	0.128504	0.625309	0.633136
30	C	0.036612	0.524054	0.968152
31	C	0.065626	0.534778	0.675163
32	C	0.038393	0.517283	0.716892
33	H	0.054905	0.535448	0.937503
34	N	0.067914	0.530781	0.757421
35	O	0.059244	0.559683	0.782433
36	O	0.061161	0.491852	0.779498
37	C	0.20506	0.570612	0.025119
38	C	0.202812	0.637114	0.980027
39	C	0.20506	0.570612	0.358453
40	C	0.202812	0.637114	0.31336
41	C	0.20506	0.570612	0.691785
42	C	0.202812	0.637114	0.646695
43	H	0.224389	0.555666	0.042335
44	H	0.220529	0.670954	0.962066
45	H	0.224389	0.555666	0.375667
46	H	0.220529	0.670954	0.295399
47	H	0.224389	0.555666	0.709
48	H	0.220529	0.670954	0.628733
49	C	0.288393	0.647134	0.001864
50	C	0.317395	0.621366	0.999998
51	C	0.372008	0.647463	0.004634
52	C	0.397778	0.702117	0.009151
53	C	0.371233	0.73048	0.00855
54	C	0.316458	0.701834	0.005472
55	C	0.399728	0.619302	0.005658
56	C	0.377422	0.569009	0.024849
57	C	0.404045	0.541157	0.025719
58	C	0.455167	0.563246	0.009184
59	C	0.477666	0.613039	0.989458
60	C	0.45039	0.640302	0.987561
61	C	0.232627	0.618461	0.001837
62	C	0.398898	0.786183	0.011174
63	C	0.379257	0.813465	0.035825
64	C	0.405911	0.867972	0.037484
65	C	0.453969	0.897408	0.01537
66	C	0.473662	0.870776	0.990205
67	C	0.446582	0.816258	0.988153
68	H	0.345365	0.793867	0.053529
69	H	0.389945	0.886036	0.055208
70	H	0.461891	0.798736	0.968811
71	H	0.508106	0.890936	0.973298
72	H	0.468051	0.675752	0.972142
73	H	0.514378	0.63003	0.976433
74	H	0.385575	0.504394	0.038616
75	H	0.34136	0.551905	0.03911
76	H	0.297974	0.582267	0.99452
77	H	0.296395	0.721347	0.006118
78	H	0.436925	0.721839	0.014396
79	C	0.732464	0.368202	0.004255
80	C	0.704077	0.394451	4.5e-05
81	C	0.649315	0.368864	0.002524
82	C	0.622728	0.31414	0.006395
83	C	0.648766	0.285353	0.00887
84	C	0.703668	0.313594	0.008801
85	C	0.622243	0.397662	0.002689
86	C	0.643925	0.446909	0.023837
87	C	0.617433	0.474869	0.025278
88	C	0.56703	0.453842	0.007294
89	C	0.54531	0.405276	0.985387
90	C	0.572483	0.377933	0.982993
91	C	0.788256	0.396244	0.004952
92	C	0.816267	0.445538	0.025907
93	C	0.870746	0.473215	0.026763
94	C	0.899547	0.451913	0.008061
95	C	0.872213	0.403189	0.986503
96	C	0.817663	0.375999	0.984941
97	C	0.620697	0.229636	0.011498
98	C	0.638008	0.199528	0.988102
99	C	0.610555	0.145012	0.990134
100	C	0.564473	0.118382	0.015619
101	C	0.546121	0.147852	0.03809
102	C	0.57401	0.202362	0.036475
103	H	0.88923	0.509111	0.041433
104	H	0.797279	0.46184	0.041565
105	H	0.891894	0.386918	0.97199
106	H	0.799639	0.341219	0.968389
107	H	0.670622	0.21702	0.96849
108	H	0.624639	0.124846	0.972943
109	H	0.559924	0.221959	0.054456
110	H	0.512234	0.129807	0.056017
111	H	0.555317	0.343271	0.966272
112	H	0.509136	0.389114	0.971331
113	H	0.635307	0.510765	0.039926
114	H	0.679241	0.462947	0.039408
115	H	0.723984	0.433519	0.994432
116	H	0.723208	0.293894	0.013562
117	H	0.583188	0.294625	0.007605
118	C	0.539323	0.481318	0.010179
119	C	0.525968	0.496671	0.302889
120	C	0.498159	0.52319	0.30335
121	C	0.482757	0.53558	0.011118
122	C	0.496237	0.520723	0.052565
123	H	0.489088	0.53333	0.273039
124	H	0.536564	0.488746	0.272277
125	C	0.523713	0.493072	0.052079
126	N	0.486574	0.534848	0.095829
127	N	0.531242	0.475798	0.094684
128	O	0.439976	0.509924	0.107608
129	O	0.577264	0.499572	0.108152
130	O	0.504193	0.582673	0.10045
131	O	0.51323	0.42769	0.096722
132	C	0.536905	0.063221	0.017842
133	C	0.512783	0.03513	0.311494
134	C	0.485609	0.980761	0.311421
135	C	0.481594	0.952553	0.017698
136	C	0.506832	0.980258	0.057827
137	H	0.468292	0.961841	0.282016
138	H	0.514415	0.054138	0.282137
139	C	0.534399	0.03538	0.057895
140	N	0.507514	0.95557	0.098678
141	N	0.559751	0.059907	0.098799
142	O	0.52582	0.925956	0.094029
143	O	0.539779	0.083271	0.117895
144	O	0.464071	0.932022	0.117581
145	O	0.607659	0.089598	0.094193
146	C	0.954726	0.479427	0.009805
147	C	0.982286	0.49698	0.302106
148	H	0.962911	0.490264	0.272015
149	C	0.983111	0.489192	0.050951
150	N	0.959198	0.470178	0.093575
151	O	0.935951	0.492387	0.108484
152	O	0.929902	0.421884	0.094345
153	C	0.288393	0.647134	0.335197
154	C	0.317395	0.621366	0.333331
155	C	0.372008	0.647463	0.337969
156	C	0.397778	0.702117	0.342486
157	C	0.371233	0.73048	0.341884
158	C	0.316458	0.701834	0.338807
159	C	0.399728	0.619302	0.338993
160	C	0.377422	0.569009	0.358182
161	C	0.404045	0.541157	0.359051
162	C	0.455167	0.563246	0.342516
163	C	0.477666	0.613039	0.322792
164	C	0.45039	0.640302	0.320897
165	C	0.232627	0.618461	0.335173
166	C	0.398898	0.786183	0.344508
167	C	0.379257	0.813465	0.369158
168	C	0.405911	0.867972	0.370815
169	C	0.453969	0.897408	0.348701
170	C	0.473662	0.870776	0.323538
171	C	0.446582	0.816258	0.321488
172	H	0.345365	0.793867	0.386863
173	H	0.389945	0.886036	0.38854
174	H	0.461891	0.798736	0.302146
175	H	0.508106	0.890936	0.306633
176	H	0.468051	0.675752	0.305476
177	H	0.514378	0.63003	0.309768
178	H	0.385575	0.504394	0.371948
179	H	0.34136	0.551905	0.372442
180	H	0.297974	0.582267	0.327855
181	H	0.296395	0.721347	0.33945
182	H	0.436925	0.721839	0.347727
183	C	0.732464	0.368202	0.337591
184	C	0.704077	0.394451	0.333379
185	C	0.649315	0.368864	0.33586
186	C	0.622728	0.31414	0.33973
187	C	0.648766	0.285353	0.342202
188	C	0.703668	0.313594	0.342134
189	C	0.622243	0.397662	0.336022
190	C	0.643925	0.446909	0.357171
191	C	0.617433	0.474869	0.358612
192	C	0.56703	0.453842	0.340626
193	C	0.54531	0.405276	0.318721
194	C	0.572483	0.377933	0.316327
195	C	0.788256	0.396244	0.338286
196	C	0.816267	0.445538	0.359241
197	C	0.870746	0.473215	0.360096
198	C	0.899547	0.451913	0.341394
199	C	0.872213	0.403189	0.319838
200	C	0.817663	0.375999	0.318273
201	C	0.620697	0.229636	0.344829
202	C	0.638008	0.199528	0.321437
203	C	0.610555	0.145012	0.323467
204	C	0.564473	0.118382	0.348951
205	C	0.546121	0.147852	0.371424
206	C	0.57401	0.202362	0.369808
207	H	0.88923	0.509111	0.374768
208	H	0.797279	0.46184	0.374896
209	H	0.891894	0.386918	0.305324
210	H	0.799639	0.341219	0.301724
211	H	0.670622	0.21702	0.301824
212	H	0.624639	0.124846	0.306277
213	H	0.559924	0.221959	0.38779
214	H	0.512234	0.129807	0.389348
215	H	0.555317	0.343271	0.299605
216	H	0.509136	0.389114	0.304663
217	H	0.635307	0.510765	0.37326
218	H	0.679241	0.462947	0.372743
219	H	0.723984	0.433519	0.327768
220	H	0.723208	0.293894	0.346895
221	H	0.583188	0.294625	0.340937
222	C	0.539323	0.481318	0.343511
223	C	0.525968	0.496671	0.636223
224	C	0.498159	0.52319	0.636683
225	C	0.482757	0.53558	0.344451
226	C	0.496237	0.520723	0.385899
227	H	0.489088	0.53333	0.606372
228	H	0.536564	0.488746	0.605611
229	C	0.523713	0.493072	0.385413
230	N	0.486574	0.534848	0.429161
231	N	0.531242	0.475798	0.428018
232	O	0.439976	0.509924	0.440942
233	O	0.577264	0.499572	0.441486
234	O	0.504193	0.582673	0.433783
235	O	0.51323	0.42769	0.430053
236	C	0.536905	0.063221	0.351176
237	C	0.512783	0.03513	0.644828
238	C	0.485609	0.980761	0.644754
239	C	0.481594	0.952553	0.351031
240	C	0.506832	0.980258	0.391161
241	H	0.468292	0.961841	0.615349
242	H	0.514415	0.054138	0.615471
243	C	0.534399	0.03538	0.391229
244	N	0.507514	0.95557	0.432011
245	N	0.559751	0.059907	0.432133
246	O	0.52582	0.925956	0.427362
247	O	0.539779	0.083271	0.451228
248	O	0.464071	0.932022	0.450913
249	O	0.607659	0.089598	0.427528
250	C	0.954726	0.479427	0.343139
251	C	0.982286	0.49698	0.635438
252	H	0.962911	0.490264	0.605347
253	C	0.983111	0.489192	0.384283
254	N	0.959198	0.470178	0.426909
255	O	0.935951	0.492387	0.441817
256	O	0.929902	0.421884	0.427676
257	C	0.288393	0.647134	0.668532
258	C	0.317395	0.621366	0.666665
259	C	0.372008	0.647463	0.671301
260	C	0.397778	0.702117	0.675819
261	C	0.371233	0.73048	0.675217
262	C	0.316458	0.701834	0.67214
263	C	0.399728	0.619302	0.672326
264	C	0.377422	0.569009	0.691515
265	C	0.404045	0.541157	0.692384
266	C	0.455167	0.563246	0.675849
267	C	0.477666	0.613039	0.656125
268	C	0.45039	0.640302	0.654229
269	C	0.232627	0.618461	0.668505
270	C	0.398898	0.786183	0.677841
271	C	0.379257	0.813465	0.702491
272	C	0.405911	0.867972	0.704151
273	C	0.453969	0.897408	0.682037
274	C	0.473662	0.870776	0.656869
275	C	0.446582	0.816258	0.65482
276	H	0.345365	0.793867	0.720196
277	H	0.389945	0.886036	0.721873
278	H	0.461891	0.798736	0.635479
279	H	0.508106	0.890936	0.639966
280	H	0.468051	0.675752	0.638809
281	H	0.514378	0.63003	0.6431
282	H	0.385575	0.504394	0.705281
283	H	0.34136	0.551905	0.705778
284	H	0.297974	0.582267	0.661187
285	H	0.296395	0.721347	0.672782
286	H	0.436925	0.721839	0.681063
287	C	0.732464	0.368202	0.670922
288	C	0.704077	0.394451	0.666713
289	C	0.649315	0.368864	0.669191
290	C	0.622728	0.31414	0.673063
291	C	0.648766	0.285353	0.675535
292	C	0.703668	0.313594	0.675467
293	C	0.622243	0.397662	0.669357
294	C	0.643925	0.446909	0.690504
295	C	0.617433	0.474869	0.691944
296	C	0.56703	0.453842	0.673959
297	C	0.54531	0.405276	0.652054
298	C	0.572483	0.377933	0.64966
299	C	0.788256	0.396244	0.671619
300	C	0.816267	0.445538	0.692573
301	C	0.870746	0.473215	0.693429
302	C	0.899547	0.451913	0.674726
303	C	0.872213	0.403189	0.65317
304	C	0.817663	0.375999	0.651605
305	C	0.620697	0.229636	0.678162
306	C	0.638008	0.199528	0.65477
307	C	0.610555	0.145012	0.656798
308	C	0.564473	0.118382	0.682284
309	C	0.546121	0.147852	0.704756
310	C	0.57401	0.202362	0.70314
311	H	0.88923	0.509111	0.708101
312	H	0.797279	0.46184	0.708229
313	H	0.891894	0.386918	0.638657
314	H	0.799639	0.341219	0.635056
315	H	0.670622	0.21702	0.635158
316	H	0.624639	0.124846	0.639611
317	H	0.559924	0.221959	0.721122
318	H	0.512234	0.129807	0.722684
319	H	0.555317	0.343271	0.632939
320	H	0.509136	0.389114	0.637995
321	H	0.635307	0.510765	0.706593
322	H	0.679241	0.462947	0.706075
323	H	0.723984	0.433519	0.661099
324	H	0.723208	0.293894	0.680228
325	H	0.583188	0.294625	0.67427
326	C	0.539323	0.481318	0.676843
327	C	0.525968	0.496671	0.969555
328	C	0.498159	0.52319	0.970015
329	C	0.482757	0.53558	0.677783
330	C	0.496237	0.520723	0.719232
331	H	0.489088	0.53333	0.939705
332	H	0.536564	0.488746	0.938944
333	C	0.523713	0.493072	0.718745
334	N	0.486574	0.534848	0.762493
335	N	0.531242	0.475798	0.76135
336	O	0.439976	0.509924	0.774274
337	O	0.577264	0.499572	0.774819
338	O	0.504193	0.582673	0.767116
339	O	0.51323	0.42769	0.763386
340	C	0.536905	0.063221	0.684509
341	C	0.512783	0.03513	0.978161
342	C	0.485609	0.980761	0.978087
343	C	0.481594	0.952553	0.684363
344	C	0.506832	0.980258	0.724494
345	H	0.468292	0.961841	0.948682
346	H	0.514415	0.054138	0.948804
347	C	0.534399	0.03538	0.724561
348	N	0.507514	0.95557	0.765344
349	N	0.559751	0.059907	0.765466
350	O	0.52582	0.925956	0.760695
351	O	0.539779	0.083271	0.78456
352	O	0.464071	0.932022	0.784246
353	O	0.607659	0.089598	0.76086
354	C	0.954726	0.479427	0.676471
355	C	0.982286	0.49698	0.968771
356	H	0.962911	0.490264	0.93868
357	C	0.983111	0.489192	0.717616
358	N	0.959198	0.470178	0.760241
359	O	0.935951	0.492387	0.77515
360	O	0.929902	0.421884	0.761009
