data_C252H144N144O36_2018-02-15_10:38:19
#******************************************
#
# CIF file created by Zeo++
# Zeo++ is an open source package to
# analyze microporous materials
#
#*******************************************

_cell_length_a		29.0442   
_cell_length_b		29.0442   
_cell_length_c		29.7174   
_cell_angle_alpha		90   
_cell_angle_beta		90   
_cell_angle_gamma		120   

_symmetry_space_group_name_H-M		'P1'
_symmetry_Int_Tables_number		1
_symmetry_cell_setting		Monoclinic

loop_
_symmetry_equiv_pos_as_xyz
'+x,+y,+z'

loop_
_atom_site_label
_atom_site_type_symbol
_atom_site_fract_x
_atom_site_fract_y
_atom_site_fract_z
1	C	0.037847	0.303223	0.018512
2	C	0.068898	0.277739	0.019425
3	C	0.039606	0.221316	0.352699
4	O	0.060162	0.357549	0.016799
5	H	0.058217	0.199396	0.353338
6	C	0.035206	0.37992	0.044161
7	H	0.058033	0.423067	0.041231
8	H	0.034317	0.369197	0.079522
9	C	0.037847	0.303223	0.351844
10	C	0.068898	0.277739	0.35276
11	C	0.039606	0.221316	0.686032
12	O	0.060162	0.357549	0.350132
13	H	0.058217	0.199396	0.686672
14	C	0.035206	0.37992	0.377493
15	H	0.058033	0.423067	0.374565
16	H	0.034317	0.369197	0.412856
17	C	0.037847	0.303223	0.685178
18	C	0.068898	0.277739	0.686093
19	C	0.039606	0.221316	0.019365
20	O	0.060162	0.357549	0.683465
21	H	0.058217	0.199396	0.020003
22	C	0.035206	0.37992	0.710826
23	H	0.058033	0.423067	0.707898
24	H	0.034317	0.369197	0.746189
25	C	0.035822	0.799177	0.031225
26	C	0.067106	0.775092	0.022347
27	C	0.03814	0.72049	0.344048
28	O	0.055888	0.848253	0.05047
29	H	0.056995	0.699479	0.337526
30	C	0.052206	0.845283	0.098922
31	H	0.068256	0.885302	0.112304
32	H	0.075358	0.828454	0.113015
33	C	0.035822	0.799177	0.364557
34	C	0.067106	0.775092	0.35568
35	C	0.03814	0.72049	0.677381
36	O	0.055888	0.848253	0.383802
37	H	0.056995	0.699479	0.670859
38	C	0.052206	0.845283	0.432255
39	H	0.068256	0.885302	0.445638
40	H	0.075358	0.828454	0.446348
41	C	0.035822	0.799177	0.697891
42	C	0.067106	0.775092	0.689014
43	C	0.03814	0.72049	0.010715
44	O	0.055888	0.848253	0.717139
45	H	0.056995	0.699479	0.004193
46	C	0.052206	0.845283	0.765588
47	H	0.068256	0.885302	0.778971
48	H	0.075358	0.828454	0.779681
49	H	0.093819	0.143714	0.066574
50	H	0.093819	0.143714	0.399907
51	H	0.093819	0.143714	0.73324
52	H	0.088478	0.954785	0.049231
53	H	0.088478	0.954785	0.382564
54	H	0.088478	0.954785	0.715897
55	H	0.010954	0.821854	0.110204
56	H	0.010954	0.821854	0.443538
57	H	0.010954	0.821854	0.776871
58	C	0.125297	0.305376	0.019479
59	H	0.126031	0.439582	0.106962
60	C	0.125297	0.305376	0.352813
61	H	0.126031	0.439582	0.440294
62	C	0.125297	0.305376	0.686147
63	H	0.126031	0.439582	0.773628
64	C	0.123347	0.80326	0.024425
65	C	0.131656	0.977203	0.051952
66	C	0.123347	0.80326	0.357757
67	C	0.131656	0.977203	0.385286
68	C	0.123347	0.80326	0.691093
69	C	0.131656	0.977203	0.718619
70	C	0.136997	0.168373	0.067284
71	C	0.136997	0.168373	0.400617
72	C	0.136997	0.168373	0.73395
73	H	0.142576	0.977724	0.087213
74	H	0.142576	0.977724	0.420545
75	H	0.142576	0.977724	0.753878
76	H	0.144911	0.017772	0.040805
77	H	0.144911	0.017772	0.374138
78	H	0.144911	0.017772	0.707471
79	H	0.994794	0.366986	0.032757
80	H	0.994794	0.366986	0.366089
81	H	0.994794	0.366986	0.699422
82	C	0.208446	0.387098	0.017635
83	N	0.154437	0.359287	0.019318
84	N	0.153284	0.27926	0.018486
85	C	0.207305	0.304067	0.0169
86	N	0.233639	0.358236	0.015896
87	C	0.319701	0.110218	0.018506
88	N	0.37368	0.137634	0.017794
89	C	0.401337	0.191583	0.016036
90	N	0.373763	0.218117	0.015083
91	C	0.319751	0.192083	0.015764
92	N	0.293485	0.138082	0.017608
93	C	0.20904	0.218729	0.019279
94	C	0.234802	0.275143	0.01651
95	C	0.291078	0.301493	0.347248
96	N	0.317453	0.273906	0.346972
97	C	0.291819	0.22	0.015591
98	N	0.237976	0.193682	0.01822
99	O	0.155058	0.186716	0.022236
100	H	0.313358	0.341991	0.345474
101	H	0.153256	0.144145	0.080065
102	H	0.147387	0.201572	0.090236
103	C	0.211992	0.474186	0.025487
104	C	0.236459	0.443355	0.016176
105	C	0.291215	0.472818	0.338509
106	N	0.316595	0.025724	0.355926
107	C	0.291614	0.054564	0.020936
108	N	0.237844	0.027853	0.021938
109	O	0.162984	0.453656	0.044947
110	H	0.312492	0.454276	0.331833
111	C	0.16602	0.455866	0.093446
112	H	0.182694	0.432155	0.106603
113	H	0.189623	0.496748	0.10557
114	N	0.485711	0.194207	0.351498
115	C	0.457047	0.219381	0.016561
116	N	0.483972	0.273147	0.016396
117	C	0.208446	0.387098	0.350969
118	N	0.154437	0.359287	0.352652
119	N	0.153284	0.27926	0.351817
120	C	0.207305	0.304067	0.350233
121	N	0.233639	0.358236	0.34923
122	C	0.319701	0.110218	0.351838
123	N	0.37368	0.137634	0.351128
124	C	0.401337	0.191583	0.349368
125	N	0.373763	0.218117	0.348415
126	C	0.319751	0.192083	0.349098
127	N	0.293485	0.138082	0.350943
128	C	0.20904	0.218729	0.352612
129	C	0.234802	0.275143	0.349842
130	C	0.291078	0.301493	0.680581
131	N	0.317453	0.273906	0.680305
132	C	0.291819	0.22	0.348924
133	N	0.237976	0.193682	0.351552
134	O	0.155058	0.186716	0.355569
135	H	0.313358	0.341991	0.678808
136	H	0.153256	0.144145	0.413398
137	H	0.147387	0.201572	0.42357
138	C	0.211992	0.474186	0.35882
139	C	0.236459	0.443355	0.349509
140	C	0.291215	0.472818	0.671842
141	N	0.316595	0.025724	0.689259
142	C	0.291614	0.054564	0.354271
143	N	0.237844	0.027853	0.35527
144	O	0.162984	0.453656	0.37828
145	H	0.312492	0.454276	0.665166
146	C	0.16602	0.455866	0.42678
147	H	0.182694	0.432155	0.439934
148	H	0.189623	0.496748	0.438904
149	N	0.485711	0.194207	0.684831
150	C	0.457047	0.219381	0.349896
151	N	0.483972	0.273147	0.349731
152	C	0.208446	0.387098	0.684303
153	N	0.154437	0.359287	0.685985
154	N	0.153284	0.27926	0.685151
155	C	0.207305	0.304067	0.683566
156	N	0.233639	0.358236	0.682563
157	C	0.319701	0.110218	0.685171
158	N	0.37368	0.137634	0.684461
159	C	0.401337	0.191583	0.682701
160	N	0.373763	0.218117	0.681749
161	C	0.319751	0.192083	0.682432
162	N	0.293485	0.138082	0.684276
163	C	0.20904	0.218729	0.685945
164	C	0.234802	0.275143	0.683175
165	C	0.291078	0.301493	0.013915
166	N	0.317453	0.273906	0.013638
167	C	0.291819	0.22	0.682257
168	N	0.237976	0.193682	0.684885
169	O	0.155058	0.186716	0.688903
170	H	0.313358	0.341991	0.012141
171	H	0.153256	0.144145	0.746731
172	H	0.147387	0.201572	0.756903
173	C	0.211992	0.474186	0.692153
174	C	0.236459	0.443355	0.682842
175	C	0.291215	0.472818	0.005174
176	N	0.316595	0.025724	0.022593
177	C	0.291614	0.054564	0.687604
178	N	0.237844	0.027853	0.688603
179	O	0.162984	0.453656	0.711613
180	H	0.312492	0.454276	0.998499
181	C	0.16602	0.455866	0.760114
182	H	0.182694	0.432155	0.773267
183	H	0.189623	0.496748	0.772238
184	N	0.485711	0.194207	0.018165
185	C	0.457047	0.219381	0.683229
186	N	0.483972	0.273147	0.683064
187	C	0.205095	0.886375	0.026473
188	N	0.15115	0.857281	0.026268
189	N	0.152226	0.778082	0.022607
190	C	0.206376	0.804321	0.023682
191	N	0.231174	0.858339	0.025322
192	C	0.318764	0.610563	0.00849
193	N	0.372685	0.638361	0.00688
194	C	0.400148	0.692124	0.010809
195	N	0.372326	0.718125	0.0155
196	C	0.318259	0.691838	0.015885
197	N	0.292219	0.63788	0.013137
198	C	0.291672	0.802409	0.024832
199	C	0.235229	0.776742	0.022702
200	C	0.208826	0.72049	0.353015
201	N	0.236404	0.694136	0.351192
202	C	0.29035	0.719699	0.018964
203	N	0.316703	0.77351	0.022262
204	O	0.323735	0.856359	0.027984
205	H	0.168304	0.698251	0.351605
206	C	0.342309	0.874063	0.073041
207	H	0.309241	0.863571	0.096171
208	H	0.367029	0.917242	0.072527
209	H	0.366534	0.857635	0.085466
210	C	0.207645	0.974051	0.025181
211	C	0.232909	0.942794	0.026011
212	C	0.289329	0.971888	0.358356
213	N	0.316884	0.526681	0.335553
214	C	0.291667	0.554848	0.009134
215	N	0.239793	0.527834	0.021245
216	O	0.153329	0.951934	0.024158
217	H	0.311134	0.953151	0.358803
218	N	0.484396	0.694676	0.339969
219	C	0.455807	0.719501	0.013199
220	N	0.482278	0.771192	0.025951
221	C	0.205095	0.886375	0.359806
222	N	0.15115	0.857281	0.359601
223	N	0.152226	0.778082	0.35594
224	C	0.206376	0.804321	0.357016
225	N	0.231174	0.858339	0.358655
226	C	0.318764	0.610563	0.341823
227	N	0.372685	0.638361	0.340215
228	C	0.400148	0.692124	0.344142
229	N	0.372326	0.718125	0.348833
230	C	0.318259	0.691838	0.34922
231	N	0.292219	0.63788	0.34647
232	C	0.291672	0.802409	0.358164
233	C	0.235229	0.776742	0.356034
234	C	0.208826	0.72049	0.686349
235	N	0.236404	0.694136	0.684525
236	C	0.29035	0.719699	0.352299
237	N	0.316703	0.77351	0.355596
238	O	0.323735	0.856359	0.361317
239	H	0.168304	0.698251	0.684939
240	C	0.342309	0.874063	0.406375
241	H	0.309241	0.863571	0.429506
242	H	0.367029	0.917242	0.40586
243	H	0.366534	0.857635	0.418798
244	C	0.207645	0.974051	0.358514
245	C	0.232909	0.942794	0.359345
246	C	0.289329	0.971888	0.691689
247	N	0.316884	0.526681	0.668884
248	C	0.291667	0.554848	0.342466
249	N	0.239793	0.527834	0.35458
250	O	0.153329	0.951934	0.357491
251	H	0.311134	0.953151	0.692137
252	N	0.484396	0.694676	0.673302
253	C	0.455807	0.719501	0.346531
254	N	0.482278	0.771192	0.359284
255	C	0.205095	0.886375	0.693139
256	N	0.15115	0.857281	0.692934
257	N	0.152226	0.778082	0.689273
258	C	0.206376	0.804321	0.69035
259	N	0.231174	0.858339	0.691988
260	C	0.318764	0.610563	0.675157
261	N	0.372685	0.638361	0.673548
262	C	0.400148	0.692124	0.677475
263	N	0.372326	0.718125	0.682166
264	C	0.318259	0.691838	0.682553
265	N	0.292219	0.63788	0.679804
266	C	0.291672	0.802409	0.691497
267	C	0.235229	0.776742	0.689367
268	C	0.208826	0.72049	0.019681
269	N	0.236404	0.694136	0.017859
270	C	0.29035	0.719699	0.685632
271	N	0.316703	0.77351	0.68893
272	O	0.323735	0.856359	0.69465
273	H	0.168304	0.698251	0.018272
274	C	0.342309	0.874063	0.739708
275	H	0.309241	0.863571	0.762839
276	H	0.367029	0.917242	0.739193
277	H	0.366534	0.857635	0.752132
278	C	0.207645	0.974051	0.691847
279	C	0.232909	0.942794	0.692678
280	C	0.289329	0.971888	0.025024
281	N	0.316884	0.526681	0.002217
282	C	0.291667	0.554848	0.675799
283	N	0.239793	0.527834	0.687913
284	O	0.153329	0.951934	0.690824
285	H	0.311134	0.953151	0.025469
286	N	0.484396	0.694676	0.006635
287	C	0.455807	0.719501	0.679864
288	N	0.482278	0.771192	0.692618
289	C	0.708447	0.387098	0.017635
290	N	0.654437	0.359287	0.019318
291	C	0.625295	0.305376	0.019479
292	N	0.653285	0.27926	0.018486
293	C	0.707304	0.304067	0.0169
294	N	0.733638	0.358236	0.015896
295	C	0.819702	0.110218	0.018506
296	N	0.87368	0.137634	0.017794
297	C	0.901336	0.191583	0.016036
298	N	0.873762	0.218117	0.015083
299	C	0.819752	0.192083	0.015764
300	N	0.793485	0.138082	0.017608
301	C	0.70904	0.218729	0.019279
302	C	0.734803	0.275143	0.01651
303	C	0.791077	0.301493	0.347248
304	N	0.817454	0.273906	0.346972
305	C	0.791819	0.22	0.015591
306	N	0.737978	0.193682	0.01822
307	O	0.655057	0.186716	0.022236
308	H	0.813358	0.341991	0.345474
309	C	0.636999	0.168373	0.067284
310	H	0.653256	0.144145	0.080065
311	H	0.59382	0.143714	0.066574
312	H	0.647387	0.201572	0.090236
313	C	0.711993	0.474186	0.025487
314	C	0.736458	0.443355	0.016176
315	C	0.791215	0.472818	0.338509
316	N	0.816595	0.025724	0.355926
317	C	0.791614	0.054564	0.020936
318	N	0.737844	0.027853	0.021938
319	O	0.662984	0.453656	0.044947
320	H	0.812491	0.454276	0.331833
321	C	0.66602	0.455866	0.093446
322	H	0.682694	0.432155	0.106603
323	H	0.62603	0.439582	0.106962
324	H	0.689622	0.496748	0.10557
325	C	0.537847	0.303223	0.018512
326	C	0.568897	0.277739	0.019425
327	C	0.539608	0.221316	0.352699
328	N	0.985711	0.194207	0.351498
329	C	0.957047	0.219381	0.016561
330	N	0.983972	0.273147	0.016396
331	O	0.560162	0.357549	0.016799
332	H	0.558216	0.199396	0.353338
333	C	0.535206	0.37992	0.044161
334	H	0.494795	0.366986	0.032757
335	H	0.558033	0.423067	0.041231
336	H	0.534317	0.369197	0.079522
337	C	0.708447	0.387098	0.350969
338	N	0.654437	0.359287	0.352652
339	C	0.625295	0.305376	0.352813
340	N	0.653285	0.27926	0.351817
341	C	0.707304	0.304067	0.350233
342	N	0.733638	0.358236	0.34923
343	C	0.819702	0.110218	0.351838
344	N	0.87368	0.137634	0.351128
345	C	0.901336	0.191583	0.349368
346	N	0.873762	0.218117	0.348415
347	C	0.819752	0.192083	0.349098
348	N	0.793485	0.138082	0.350943
349	C	0.70904	0.218729	0.352612
350	C	0.734803	0.275143	0.349842
351	C	0.791077	0.301493	0.680581
352	N	0.817454	0.273906	0.680305
353	C	0.791819	0.22	0.348924
354	N	0.737978	0.193682	0.351552
355	O	0.655057	0.186716	0.355569
356	H	0.813358	0.341991	0.678808
357	C	0.636999	0.168373	0.400617
358	H	0.653256	0.144145	0.413398
359	H	0.59382	0.143714	0.399907
360	H	0.647387	0.201572	0.42357
361	C	0.711993	0.474186	0.35882
362	C	0.736458	0.443355	0.349509
363	C	0.791215	0.472818	0.671842
364	N	0.816595	0.025724	0.689259
365	C	0.791614	0.054564	0.354271
366	N	0.737844	0.027853	0.35527
367	O	0.662984	0.453656	0.37828
368	H	0.812491	0.454276	0.665166
369	C	0.66602	0.455866	0.42678
370	H	0.682694	0.432155	0.439934
371	H	0.62603	0.439582	0.440294
372	H	0.689622	0.496748	0.438904
373	C	0.537847	0.303223	0.351844
374	C	0.568897	0.277739	0.35276
375	C	0.539608	0.221316	0.686032
376	N	0.985711	0.194207	0.684831
377	C	0.957047	0.219381	0.349896
378	N	0.983972	0.273147	0.349731
379	O	0.560162	0.357549	0.350132
380	H	0.558216	0.199396	0.686672
381	C	0.535206	0.37992	0.377493
382	H	0.494795	0.366986	0.366089
383	H	0.558033	0.423067	0.374565
384	H	0.534317	0.369197	0.412856
385	C	0.708447	0.387098	0.684303
386	N	0.654437	0.359287	0.685985
387	C	0.625295	0.305376	0.686147
388	N	0.653285	0.27926	0.685151
389	C	0.707304	0.304067	0.683566
390	N	0.733638	0.358236	0.682563
391	C	0.819702	0.110218	0.685171
392	N	0.87368	0.137634	0.684461
393	C	0.901336	0.191583	0.682701
394	N	0.873762	0.218117	0.681749
395	C	0.819752	0.192083	0.682432
396	N	0.793485	0.138082	0.684276
397	C	0.70904	0.218729	0.685945
398	C	0.734803	0.275143	0.683175
399	C	0.791077	0.301493	0.013915
400	N	0.817454	0.273906	0.013638
401	C	0.791819	0.22	0.682257
402	N	0.737978	0.193682	0.684885
403	O	0.655057	0.186716	0.688903
404	H	0.813358	0.341991	0.012141
405	C	0.636999	0.168373	0.73395
406	H	0.653256	0.144145	0.746731
407	H	0.59382	0.143714	0.73324
408	H	0.647387	0.201572	0.756903
409	C	0.711993	0.474186	0.692153
410	C	0.736458	0.443355	0.682842
411	C	0.791215	0.472818	0.005174
412	N	0.816595	0.025724	0.022593
413	C	0.791614	0.054564	0.687604
414	N	0.737844	0.027853	0.688603
415	O	0.662984	0.453656	0.711613
416	H	0.812491	0.454276	0.998499
417	C	0.66602	0.455866	0.760114
418	H	0.682694	0.432155	0.773267
419	H	0.62603	0.439582	0.773628
420	H	0.689622	0.496748	0.772238
421	C	0.537847	0.303223	0.685178
422	C	0.568897	0.277739	0.686093
423	C	0.539608	0.221316	0.019365
424	N	0.985711	0.194207	0.018165
425	C	0.957047	0.219381	0.683229
426	N	0.983972	0.273147	0.683064
427	O	0.560162	0.357549	0.683465
428	H	0.558216	0.199396	0.020003
429	C	0.535206	0.37992	0.710826
430	H	0.494795	0.366986	0.699422
431	H	0.558033	0.423067	0.707898
432	H	0.534317	0.369197	0.746189
433	C	0.705095	0.886375	0.026473
434	N	0.65115	0.857281	0.026268
435	C	0.623347	0.80326	0.024425
436	N	0.652226	0.778082	0.022607
437	C	0.706376	0.804321	0.023682
438	N	0.731174	0.858339	0.025322
439	C	0.818765	0.610563	0.00849
440	N	0.872685	0.638361	0.00688
441	C	0.900149	0.692124	0.010809
442	N	0.872325	0.718125	0.0155
443	C	0.818258	0.691838	0.015885
444	N	0.792219	0.63788	0.013137
445	C	0.791672	0.802409	0.024832
446	C	0.735229	0.776742	0.022702
447	C	0.708828	0.72049	0.353015
448	N	0.736406	0.694136	0.351192
449	C	0.790352	0.719699	0.018964
450	N	0.816703	0.77351	0.022262
451	O	0.823735	0.856359	0.027984
452	H	0.668304	0.698251	0.351605
453	C	0.84231	0.874063	0.073041
454	H	0.809241	0.863571	0.096171
455	H	0.86703	0.917242	0.072527
456	H	0.866533	0.857635	0.085466
457	C	0.707645	0.974051	0.025181
458	C	0.732909	0.942794	0.026011
459	C	0.789329	0.971888	0.358356
460	N	0.816883	0.526681	0.335553
461	C	0.791668	0.554848	0.009134
462	N	0.739791	0.527834	0.021245
463	O	0.653329	0.951934	0.024158
464	H	0.811135	0.953151	0.358803
465	C	0.631658	0.977203	0.051952
466	H	0.642575	0.977724	0.087213
467	H	0.58848	0.954785	0.049231
468	H	0.644913	0.017772	0.040805
469	C	0.535823	0.799177	0.031225
470	C	0.567106	0.775092	0.022347
471	C	0.538141	0.72049	0.344048
472	N	0.984395	0.694676	0.339969
473	C	0.955807	0.719501	0.013199
474	N	0.982276	0.771192	0.025951
475	O	0.555887	0.848253	0.05047
476	H	0.556995	0.699479	0.337526
477	C	0.552206	0.845283	0.098922
478	H	0.510955	0.821854	0.110204
479	H	0.568257	0.885302	0.112304
480	H	0.575358	0.828454	0.113015
481	C	0.705095	0.886375	0.359806
482	N	0.65115	0.857281	0.359601
483	C	0.623347	0.80326	0.357757
484	N	0.652226	0.778082	0.35594
485	C	0.706376	0.804321	0.357016
486	N	0.731174	0.858339	0.358655
487	C	0.818765	0.610563	0.341823
488	N	0.872685	0.638361	0.340215
489	C	0.900149	0.692124	0.344142
490	N	0.872325	0.718125	0.348833
491	C	0.818258	0.691838	0.34922
492	N	0.792219	0.63788	0.34647
493	C	0.791672	0.802409	0.358164
494	C	0.735229	0.776742	0.356034
495	C	0.708828	0.72049	0.686349
496	N	0.736406	0.694136	0.684525
497	C	0.790352	0.719699	0.352299
498	N	0.816703	0.77351	0.355596
499	O	0.823735	0.856359	0.361317
500	H	0.668304	0.698251	0.684939
501	C	0.84231	0.874063	0.406375
502	H	0.809241	0.863571	0.429506
503	H	0.86703	0.917242	0.40586
504	H	0.866533	0.857635	0.418798
505	C	0.707645	0.974051	0.358514
506	C	0.732909	0.942794	0.359345
507	C	0.789329	0.971888	0.691689
508	N	0.816883	0.526681	0.668884
509	C	0.791668	0.554848	0.342466
510	N	0.739791	0.527834	0.35458
511	O	0.653329	0.951934	0.357491
512	H	0.811135	0.953151	0.692137
513	C	0.631658	0.977203	0.385286
514	H	0.642575	0.977724	0.420545
515	H	0.58848	0.954785	0.382564
516	H	0.644913	0.017772	0.374138
517	C	0.535823	0.799177	0.364557
518	C	0.567106	0.775092	0.35568
519	C	0.538141	0.72049	0.677381
520	N	0.984395	0.694676	0.673302
521	C	0.955807	0.719501	0.346531
522	N	0.982276	0.771192	0.359284
523	O	0.555887	0.848253	0.383802
524	H	0.556995	0.699479	0.670859
525	C	0.552206	0.845283	0.432255
526	H	0.510955	0.821854	0.443538
527	H	0.568257	0.885302	0.445638
528	H	0.575358	0.828454	0.446348
529	C	0.705095	0.886375	0.693139
530	N	0.65115	0.857281	0.692934
531	C	0.623347	0.80326	0.691093
532	N	0.652226	0.778082	0.689273
533	C	0.706376	0.804321	0.69035
534	N	0.731174	0.858339	0.691988
535	C	0.818765	0.610563	0.675157
536	N	0.872685	0.638361	0.673548
537	C	0.900149	0.692124	0.677475
538	N	0.872325	0.718125	0.682166
539	C	0.818258	0.691838	0.682553
540	N	0.792219	0.63788	0.679804
541	C	0.791672	0.802409	0.691497
542	C	0.735229	0.776742	0.689367
543	C	0.708828	0.72049	0.019681
544	N	0.736406	0.694136	0.017859
545	C	0.790352	0.719699	0.685632
546	N	0.816703	0.77351	0.68893
547	O	0.823735	0.856359	0.69465
548	H	0.668304	0.698251	0.018272
549	C	0.84231	0.874063	0.739708
550	H	0.809241	0.863571	0.762839
551	H	0.86703	0.917242	0.739193
552	H	0.866533	0.857635	0.752132
553	C	0.707645	0.974051	0.691847
554	C	0.732909	0.942794	0.692678
555	C	0.789329	0.971888	0.025024
556	N	0.816883	0.526681	0.002217
557	C	0.791668	0.554848	0.675799
558	N	0.739791	0.527834	0.687913
559	O	0.653329	0.951934	0.690824
560	H	0.811135	0.953151	0.025469
561	C	0.631658	0.977203	0.718619
562	H	0.642575	0.977724	0.753878
563	H	0.58848	0.954785	0.715897
564	H	0.644913	0.017772	0.707471
565	C	0.535823	0.799177	0.697891
566	C	0.567106	0.775092	0.689014
567	C	0.538141	0.72049	0.010715
568	N	0.984395	0.694676	0.006635
569	C	0.955807	0.719501	0.679864
570	N	0.982276	0.771192	0.692618
571	O	0.555887	0.848253	0.717139
572	H	0.556995	0.699479	0.004193
573	C	0.552206	0.845283	0.765588
574	H	0.510955	0.821854	0.776871
575	H	0.568257	0.885302	0.778971
576	H	0.575358	0.828454	0.779681
