data_C243H162N54_2018-02-15_10:39:54
#******************************************
#
# CIF file created by Zeo++
# Zeo++ is an open source package to
# analyze microporous materials
#
#*******************************************

_cell_length_a		30.3353   
_cell_length_b		30.3353   
_cell_length_c		29.5104   
_cell_angle_alpha		90   
_cell_angle_beta		90   
_cell_angle_gamma		120   

_symmetry_space_group_name_H-M		'P1'
_symmetry_Int_Tables_number		1
_symmetry_cell_setting		Monoclinic

loop_
_symmetry_equiv_pos_as_xyz
'+x,+y,+z'

loop_
_atom_site_label
_atom_site_type_symbol
_atom_site_fract_x
_atom_site_fract_y
_atom_site_fract_z
1	C	0.035379	0.487824	0.326888
2	C	0.066083	0.530354	0.355343
3	N	0.040315	0.546398	0.049107
4	C	0.05476	0.468621	0.29026
5	H	0.023966	0.44196	0.268243
6	H	0.072948	0.448591	0.304517
7	H	0.082068	0.500165	0.269309
8	C	0.035379	0.487824	0.660222
9	C	0.066083	0.530354	0.688676
10	N	0.040315	0.546398	0.382438
11	C	0.05476	0.468621	0.623594
12	H	0.023966	0.44196	0.601575
13	H	0.072948	0.448591	0.63785
14	H	0.082068	0.500165	0.602642
15	C	0.035379	0.487824	0.993552
16	C	0.066083	0.530354	0.022011
17	N	0.040315	0.546398	0.715772
18	C	0.05476	0.468621	0.956925
19	H	0.023966	0.44196	0.934909
20	H	0.072948	0.448591	0.971184
21	H	0.082068	0.500165	0.935976
22	C	0.202284	0.560897	0.005843
23	C	0.198634	0.640992	0.001899
24	C	0.146769	0.613312	0.014954
25	C	0.120892	0.559382	0.020064
26	C	0.15065	0.534971	0.019555
27	H	0.126628	0.6321	0.01633
28	H	0.133534	0.496766	0.025612
29	H	0.185465	0.473569	0.078316
30	C	0.202284	0.560897	0.339176
31	C	0.198634	0.640992	0.335232
32	C	0.146769	0.613312	0.348288
33	C	0.120892	0.559382	0.353398
34	C	0.15065	0.534971	0.352886
35	H	0.126628	0.6321	0.349663
36	H	0.133534	0.496766	0.358945
37	H	0.185465	0.473569	0.411648
38	C	0.202284	0.560897	0.672509
39	C	0.198634	0.640992	0.668565
40	C	0.146769	0.613312	0.681621
41	C	0.120892	0.559382	0.686731
42	C	0.15065	0.534971	0.68622
43	H	0.126628	0.6321	0.682997
44	H	0.133534	0.496766	0.692279
45	H	0.185465	0.473569	0.744982
46	C	0.224396	0.613331	0.996012
47	H	0.262558	0.633299	0.988608
48	C	0.249631	0.518767	0.037356
49	C	0.233896	0.538907	0.001221
50	N	0.264034	0.553535	0.297036
51	C	0.224237	0.505288	0.082053
52	H	0.244299	0.493816	0.105741
53	H	0.223098	0.537826	0.096511
54	C	0.227233	0.694515	0.328796
55	N	0.242273	0.72454	0.033257
56	C	0.260197	0.714293	0.291133
57	H	0.254504	0.692619	0.262835
58	C	0.224396	0.613331	0.329348
59	H	0.262558	0.633299	0.321944
60	C	0.249631	0.518767	0.37069
61	C	0.233896	0.538907	0.334553
62	N	0.264034	0.553535	0.630368
63	C	0.224237	0.505288	0.415386
64	H	0.244299	0.493816	0.439076
65	H	0.223098	0.537826	0.429845
66	C	0.227233	0.694515	0.66213
67	N	0.242273	0.72454	0.36659
68	C	0.260197	0.714293	0.624465
69	H	0.254504	0.692619	0.59617
70	C	0.224396	0.613331	0.662682
71	H	0.262558	0.633299	0.655278
72	C	0.249631	0.518767	0.70402
73	C	0.233896	0.538907	0.667887
74	N	0.264034	0.553535	0.963702
75	C	0.224237	0.505288	0.74872
76	H	0.244299	0.493816	0.772406
77	H	0.223098	0.537826	0.763179
78	C	0.227233	0.694515	0.99546
79	N	0.242273	0.72454	0.699923
80	C	0.260197	0.714293	0.957799
81	H	0.254504	0.692619	0.9295
82	C	0.460162	0.645705	0.005521
83	C	0.407687	0.615432	0.99586
84	C	0.379955	0.56202	0.001902
85	C	0.407572	0.537826	0.015157
86	C	0.461553	0.565799	0.019885
87	C	0.486071	0.619969	0.019186
88	H	0.388748	0.498901	0.016585
89	H	0.524322	0.641023	0.025064
90	H	0.387777	0.633695	0.988493
91	C	0.375338	0.818194	0.005321
92	C	0.405761	0.796315	0.994992
93	C	0.459152	0.822054	0.001184
94	C	0.483209	0.873761	0.014761
95	C	0.4551	0.899588	0.01989
96	C	0.400946	0.869684	0.019444
97	H	0.52213	0.893935	0.016166
98	H	0.379769	0.88663	0.025825
99	H	0.387628	0.758201	0.987436
100	C	0.824375	0.455561	0.004674
101	C	0.800839	0.402864	0.99505
102	C	0.824749	0.373606	0.001783
103	C	0.876002	0.39972	0.016373
104	C	0.903329	0.45357	0.022302
105	C	0.875788	0.480181	0.019358
106	H	0.894664	0.379552	0.019354
107	H	0.894673	0.5189	0.022994
108	H	0.762774	0.383817	0.987243
109	C	0.565512	0.37315	0.004403
110	C	0.618111	0.402396	0.994396
111	C	0.647322	0.455576	0.001085
112	C	0.621203	0.480649	0.015847
113	C	0.567382	0.454053	0.021926
114	C	0.540863	0.399887	0.019185
115	H	0.641327	0.519479	0.018801
116	H	0.502172	0.379994	0.023003
117	H	0.63719	0.38344	0.986484
118	C	0.647629	0.196465	0.004989
119	C	0.618367	0.219874	0.995281
120	C	0.565172	0.195797	0.001814
121	C	0.5401	0.144512	0.016294
122	C	0.56672	0.11729	0.022339
123	C	0.620899	0.145011	0.019591
124	H	0.501265	0.125777	0.019225
125	H	0.640834	0.126243	0.023287
126	H	0.63731	0.257924	0.987412
127	C	0.957926	0.479994	0.025268
128	N	0.983814	0.465564	0.330307
129	C	0.988562	0.523631	0.051751
130	H	0.972617	0.538222	0.073157
131	C	0.540889	0.482156	0.024924
132	N	0.555074	0.522269	0.329762
133	C	0.532789	0.551548	0.326351
134	C	0.490516	0.539942	0.355075
135	N	0.474678	0.498307	0.049038
136	C	0.497452	0.469321	0.051642
137	H	0.483058	0.438945	0.073222
138	C	0.55166	0.589841	0.289483
139	H	0.578137	0.585547	0.26735
140	H	0.571794	0.628172	0.303492
141	H	0.519927	0.585422	0.268707
142	C	0.538626	0.062658	0.025388
143	N	0.497711	0.036737	0.331056
144	C	0.468309	0.98518	0.327664
145	C	0.480803	0.954423	0.35537
146	N	0.523183	0.980212	0.048483
147	C	0.552181	0.031968	0.051157
148	H	0.583158	0.04787	0.072056
149	C	0.429065	0.965999	0.291594
150	H	0.433026	0.996854	0.269757
151	H	0.391127	0.94809	0.306421
152	H	0.432659	0.93852	0.270325
153	C	0.326346	0.537148	0.329318
154	N	0.296136	0.521702	0.033625
155	C	0.306578	0.550437	0.291691
156	H	0.328079	0.56645	0.263303
157	C	0.484118	0.793426	0.328384
158	N	0.499316	0.778767	0.03292
159	C	0.502239	0.735206	0.036863
160	C	0.482261	0.6993	0.00074
161	N	0.467782	0.714754	0.296423
162	C	0.471185	0.760507	0.290721
163	H	0.454777	0.765673	0.262466
164	C	0.515375	0.723288	0.081708
165	H	0.526812	0.754878	0.105324
166	H	0.547016	0.716075	0.078231
167	H	0.482677	0.689696	0.096094
168	C	0.285948	0.770956	0.037068
169	C	0.321715	0.786448	0.000879
170	N	0.306056	0.756556	0.296563
171	C	0.298046	0.795964	0.081939
172	H	0.26653	0.775832	0.105634
173	H	0.305292	0.834832	0.078545
174	H	0.331657	0.796787	0.096192
175	C	0.70084	0.479362	0.328245
176	N	0.731569	0.495844	0.032189
177	C	0.778256	0.499099	0.035597
178	C	0.793742	0.478639	0.999506
179	N	0.763157	0.463455	0.295572
180	C	0.72021	0.465853	0.290532
181	H	0.698458	0.449539	0.262335
182	C	0.804163	0.51332	0.08004
183	H	0.784543	0.525466	0.103583
184	H	0.842991	0.544773	0.075753
185	H	0.80521	0.480938	0.09498
186	C	0.541306	0.225368	0.328575
187	N	0.525158	0.240157	0.032436
188	C	0.522056	0.283686	0.035682
189	C	0.542714	0.319437	0.999455
190	N	0.557523	0.303629	0.29558
191	C	0.554716	0.258081	0.290728
192	H	0.570982	0.252347	0.262654
193	C	0.508045	0.295656	0.080099
194	H	0.495893	0.263994	0.10376
195	H	0.476651	0.303119	0.07582
196	H	0.540535	0.329103	0.094898
197	C	0.794991	0.320096	0.328873
198	N	0.780698	0.289269	0.03276
199	C	0.737236	0.242589	0.036042
200	C	0.70135	0.227297	0.99993
201	N	0.716811	0.257923	0.296037
202	C	0.762215	0.30082	0.291067
203	H	0.767779	0.322774	0.262994
204	C	0.725488	0.216514	0.080412
205	H	0.757214	0.236057	0.104008
206	H	0.718144	0.177709	0.07601
207	H	0.69203	0.215396	0.095359
208	C	0.460162	0.645705	0.338856
209	C	0.407687	0.615432	0.329195
210	C	0.379955	0.56202	0.335235
211	C	0.407572	0.537826	0.348491
212	C	0.461553	0.565799	0.353218
213	C	0.486071	0.619969	0.35252
214	H	0.388748	0.498901	0.349918
215	H	0.524322	0.641023	0.358396
216	H	0.387777	0.633695	0.321827
217	C	0.375338	0.818194	0.338654
218	C	0.405761	0.796315	0.328327
219	C	0.459152	0.822054	0.334519
220	C	0.483209	0.873761	0.348095
221	C	0.4551	0.899588	0.353222
222	C	0.400946	0.869684	0.352778
223	H	0.52213	0.893935	0.349497
224	H	0.379769	0.88663	0.359158
225	H	0.387628	0.758201	0.32077
226	C	0.824375	0.455561	0.338009
227	C	0.800839	0.402864	0.328385
228	C	0.824749	0.373606	0.335118
229	C	0.876002	0.39972	0.349704
230	C	0.903329	0.45357	0.355634
231	C	0.875788	0.480181	0.35269
232	H	0.894664	0.379552	0.352686
233	H	0.894673	0.5189	0.356326
234	H	0.762774	0.383817	0.320578
235	C	0.565512	0.37315	0.337737
236	C	0.618111	0.402396	0.327729
237	C	0.647322	0.455576	0.33442
238	C	0.621203	0.480649	0.349179
239	C	0.567382	0.454053	0.355258
240	C	0.540863	0.399887	0.352517
241	H	0.641327	0.519479	0.352134
242	H	0.502172	0.379994	0.356336
243	H	0.63719	0.38344	0.319818
244	C	0.647629	0.196465	0.338324
245	C	0.618367	0.219874	0.328614
246	C	0.565172	0.195797	0.335149
247	C	0.5401	0.144512	0.349626
248	C	0.56672	0.11729	0.355672
249	C	0.620899	0.145011	0.352923
250	H	0.501265	0.125777	0.352557
251	H	0.640834	0.126243	0.35662
252	H	0.63731	0.257924	0.320748
253	C	0.957926	0.479994	0.358603
254	N	0.983814	0.465564	0.663641
255	C	0.988562	0.523631	0.385085
256	H	0.972617	0.538222	0.406491
257	C	0.540889	0.482156	0.358257
258	N	0.555074	0.522269	0.663096
259	C	0.532789	0.551548	0.659683
260	C	0.490516	0.539942	0.688409
261	N	0.474678	0.498307	0.382371
262	C	0.497452	0.469321	0.384973
263	H	0.483058	0.438945	0.406555
264	C	0.55166	0.589841	0.622815
265	H	0.578137	0.585547	0.600684
266	H	0.571794	0.628172	0.636824
267	H	0.519927	0.585422	0.602039
268	C	0.538626	0.062658	0.358721
269	N	0.497711	0.036737	0.66439
270	C	0.468309	0.98518	0.660998
271	C	0.480803	0.954423	0.688704
272	N	0.523183	0.980212	0.381815
273	C	0.552181	0.031968	0.384489
274	H	0.583158	0.04787	0.40539
275	C	0.429065	0.965999	0.624926
276	H	0.433026	0.996854	0.60309
277	H	0.391127	0.94809	0.639755
278	H	0.432659	0.93852	0.603659
279	C	0.326346	0.537148	0.662652
280	N	0.296136	0.521702	0.366959
281	C	0.306578	0.550437	0.625024
282	H	0.328079	0.56645	0.596634
283	C	0.484118	0.793426	0.661716
284	N	0.499316	0.778767	0.366254
285	C	0.502239	0.735206	0.370195
286	C	0.482261	0.6993	0.334072
287	N	0.467782	0.714754	0.629755
288	C	0.471185	0.760507	0.624055
289	H	0.454777	0.765673	0.595801
290	C	0.515375	0.723288	0.41504
291	H	0.526812	0.754878	0.438656
292	H	0.547016	0.716075	0.411564
293	H	0.482677	0.689696	0.429429
294	C	0.285948	0.770956	0.370402
295	C	0.321715	0.786448	0.334214
296	N	0.306056	0.756556	0.629897
297	C	0.298046	0.795964	0.415271
298	H	0.26653	0.775832	0.438968
299	H	0.305292	0.834832	0.411879
300	H	0.331657	0.796787	0.429524
301	C	0.70084	0.479362	0.661578
302	N	0.731569	0.495844	0.365522
303	C	0.778256	0.499099	0.368931
304	C	0.793742	0.478639	0.33284
305	N	0.763157	0.463455	0.628904
306	C	0.72021	0.465853	0.623865
307	H	0.698458	0.449539	0.595668
308	C	0.804163	0.51332	0.413373
309	H	0.784543	0.525466	0.436918
310	H	0.842991	0.544773	0.409087
311	H	0.80521	0.480938	0.428314
312	C	0.541306	0.225368	0.66191
313	N	0.525158	0.240157	0.36577
314	C	0.522056	0.283686	0.369016
315	C	0.542714	0.319437	0.332789
316	N	0.557523	0.303629	0.628914
317	C	0.554716	0.258081	0.624062
318	H	0.570982	0.252347	0.595987
319	C	0.508045	0.295656	0.413431
320	H	0.495893	0.263994	0.437094
321	H	0.476651	0.303119	0.409154
322	H	0.540535	0.329103	0.428232
323	C	0.794991	0.320096	0.662208
324	N	0.780698	0.289269	0.366092
325	C	0.737236	0.242589	0.369375
326	C	0.70135	0.227297	0.333264
327	N	0.716811	0.257923	0.629372
328	C	0.762215	0.30082	0.624401
329	H	0.767779	0.322774	0.596326
330	C	0.725488	0.216514	0.413746
331	H	0.757214	0.236057	0.437341
332	H	0.718144	0.177709	0.409344
333	H	0.69203	0.215396	0.428693
334	C	0.460162	0.645705	0.672191
335	C	0.407687	0.615432	0.66253
336	C	0.379955	0.56202	0.668568
337	C	0.407572	0.537826	0.681825
338	C	0.461553	0.565799	0.686552
339	C	0.486071	0.619969	0.685854
340	H	0.388748	0.498901	0.683251
341	H	0.524322	0.641023	0.69173
342	H	0.387777	0.633695	0.655159
343	C	0.375338	0.818194	0.671987
344	C	0.405761	0.796315	0.661659
345	C	0.459152	0.822054	0.667853
346	C	0.483209	0.873761	0.681428
347	C	0.4551	0.899588	0.686555
348	C	0.400946	0.869684	0.686111
349	H	0.52213	0.893935	0.682831
350	H	0.379769	0.88663	0.692492
351	H	0.387628	0.758201	0.654102
352	C	0.824375	0.455561	0.671344
353	C	0.800839	0.402864	0.661716
354	C	0.824749	0.373606	0.66845
355	C	0.876002	0.39972	0.683038
356	C	0.903329	0.45357	0.688968
357	C	0.875788	0.480181	0.686023
358	H	0.894664	0.379552	0.68602
359	H	0.894673	0.5189	0.689659
360	H	0.762774	0.383817	0.653912
361	C	0.565512	0.37315	0.671069
362	C	0.618111	0.402396	0.661062
363	C	0.647322	0.455576	0.667752
364	C	0.621203	0.480649	0.682513
365	C	0.567382	0.454053	0.688592
366	C	0.540863	0.399887	0.68585
367	H	0.641327	0.519479	0.685467
368	H	0.502172	0.379994	0.689669
369	H	0.63719	0.38344	0.65315
370	C	0.647629	0.196465	0.671659
371	C	0.618367	0.219874	0.661947
372	C	0.565172	0.195797	0.668484
373	C	0.5401	0.144512	0.68296
374	C	0.56672	0.11729	0.689005
375	C	0.620899	0.145011	0.686257
376	H	0.501265	0.125777	0.685891
377	H	0.640834	0.126243	0.689954
378	H	0.63731	0.257924	0.654082
379	C	0.957926	0.479994	0.691933
380	N	0.983814	0.465564	0.996975
381	C	0.988562	0.523631	0.718419
382	H	0.972617	0.538222	0.739821
383	C	0.540889	0.482156	0.691591
384	N	0.555074	0.522269	0.996429
385	C	0.532789	0.551548	0.993017
386	C	0.490516	0.539942	0.021742
387	N	0.474678	0.498307	0.715704
388	C	0.497452	0.469321	0.718307
389	H	0.483058	0.438945	0.739889
390	C	0.55166	0.589841	0.956149
391	H	0.578137	0.585547	0.934017
392	H	0.571794	0.628172	0.970157
393	H	0.519927	0.585422	0.935373
394	C	0.538626	0.062658	0.692055
395	N	0.497711	0.036737	0.997724
396	C	0.468309	0.98518	0.994328
397	C	0.480803	0.954423	0.022037
398	N	0.523183	0.980212	0.715149
399	C	0.552181	0.031968	0.717822
400	H	0.583158	0.04787	0.738723
401	C	0.429065	0.965999	0.95826
402	H	0.433026	0.996854	0.936423
403	H	0.391127	0.94809	0.973088
404	H	0.432659	0.93852	0.936989
405	C	0.326346	0.537148	0.995985
406	N	0.296136	0.521702	0.700289
407	C	0.306578	0.550437	0.958358
408	H	0.328079	0.56645	0.929968
409	C	0.484118	0.793426	0.99505
410	N	0.499316	0.778767	0.699588
411	C	0.502239	0.735206	0.703529
412	C	0.482261	0.6993	0.667406
413	N	0.467782	0.714754	0.963088
414	C	0.471185	0.760507	0.957385
415	H	0.454777	0.765673	0.929131
416	C	0.515375	0.723288	0.748374
417	H	0.526812	0.754878	0.77199
418	H	0.547016	0.716075	0.744897
419	H	0.482677	0.689696	0.762759
420	C	0.285948	0.770956	0.703732
421	C	0.321715	0.786448	0.667548
422	N	0.306056	0.756556	0.963227
423	C	0.298046	0.795964	0.748605
424	H	0.26653	0.775832	0.772301
425	H	0.305292	0.834832	0.745213
426	H	0.331657	0.796787	0.762857
427	C	0.70084	0.479362	0.994911
428	N	0.731569	0.495844	0.698856
429	C	0.778256	0.499099	0.702265
430	C	0.793742	0.478639	0.666173
431	N	0.763157	0.463455	0.962238
432	C	0.72021	0.465853	0.957199
433	H	0.698458	0.449539	0.929002
434	C	0.804163	0.51332	0.746707
435	H	0.784543	0.525466	0.770248
436	H	0.842991	0.544773	0.74242
437	H	0.80521	0.480938	0.761647
438	C	0.541306	0.225368	0.99524
439	N	0.525158	0.240157	0.699103
440	C	0.522056	0.283686	0.702346
441	C	0.542714	0.319437	0.666122
442	N	0.557523	0.303629	0.962248
443	C	0.554716	0.258081	0.957396
444	H	0.570982	0.252347	0.929321
445	C	0.508045	0.295656	0.746765
446	H	0.495893	0.263994	0.770427
447	H	0.476651	0.303119	0.742488
448	H	0.540535	0.329103	0.761563
449	C	0.794991	0.320096	0.995538
450	N	0.780698	0.289269	0.699425
451	C	0.737236	0.242589	0.702709
452	C	0.70135	0.227297	0.666596
453	N	0.716811	0.257923	0.962702
454	C	0.762215	0.30082	0.957734
455	H	0.767779	0.322774	0.92966
456	C	0.725488	0.216514	0.74708
457	H	0.757214	0.236057	0.770675
458	H	0.718144	0.177709	0.742674
459	H	0.69203	0.215396	0.762024
