data_C162H81N135_2018-02-15_10:38:29
#******************************************
#
# CIF file created by Zeo++
# Zeo++ is an open source package to
# analyze microporous materials
#
#*******************************************

_cell_length_a		30.277   
_cell_length_b		30.277   
_cell_length_c		29.7708   
_cell_angle_alpha		90   
_cell_angle_beta		90   
_cell_angle_gamma		120   

_symmetry_space_group_name_H-M		'P1'
_symmetry_Int_Tables_number		1
_symmetry_cell_setting		Monoclinic

loop_
_symmetry_equiv_pos_as_xyz
'+x,+y,+z'

loop_
_atom_site_label
_atom_site_type_symbol
_atom_site_fract_x
_atom_site_fract_y
_atom_site_fract_z
1	C	0.03552	0.575727	0.349997
2	N	0.029979	0.49815	0.036707
3	C	0.03552	0.575727	0.68333
4	N	0.029979	0.49815	0.37004
5	C	0.03552	0.575727	0.016663
6	N	0.029979	0.49815	0.703373
7	C	0.06076	0.548767	0.361774
8	H	0.056845	0.613228	0.34078
9	C	0.06076	0.548767	0.69511
10	H	0.056845	0.613228	0.674113
11	C	0.06076	0.548767	0.028441
12	H	0.056845	0.613228	0.007445
13	C	0.114946	0.571505	0.023994
14	C	0.114946	0.571505	0.35733
15	C	0.114946	0.571505	0.690662
16	C	0.193691	0.645985	0.003768
17	N	0.14452	0.623521	0.018104
18	N	0.137405	0.541853	0.018533
19	C	0.186771	0.562047	0.004247
20	N	0.210648	0.612961	0.997345
21	C	0.363899	0.549938	0.003758
22	N	0.386367	0.523226	0.018092
23	C	0.438406	0.545602	0.023825
24	N	0.46809	0.597698	0.018276
25	C	0.447914	0.626904	0.00405
26	N	0.396979	0.599895	0.997305
27	C	0.459539	0.815824	0.0042
28	N	0.48629	0.865026	0.01847
29	C	0.463923	0.894697	0.024222
30	N	0.41185	0.872322	0.01857
31	C	0.382661	0.822956	0.00432
32	N	0.409615	0.798975	0.99756
33	C	0.825859	0.384122	0.002185
34	N	0.875941	0.413968	0.014091
35	C	0.898097	0.466195	0.019182
36	N	0.866971	0.487193	0.016252
37	C	0.817044	0.460108	0.003916
38	N	0.800954	0.410338	0.997275
39	C	0.625619	0.443918	0.001117
40	N	0.595731	0.464005	0.013374
41	C	0.543535	0.43388	0.018682
42	N	0.522694	0.381795	0.015751
43	C	0.549747	0.359017	0.00316
44	N	0.599469	0.392768	0.996324
45	C	0.565857	0.183614	0.00149
46	N	0.545689	0.133635	0.013761
47	C	0.575768	0.111518	0.019147
48	N	0.627872	0.142708	0.016299
49	C	0.650716	0.192537	0.003697
50	N	0.617004	0.208537	0.996804
51	C	0.981757	0.550929	0.344975
52	C	0.952556	0.497944	0.356355
53	N	0.979956	0.475035	0.034705
54	N	0.962779	0.579243	0.326419
55	H	0.985224	0.6147	0.317866
56	H	0.928644	0.56395	0.31459
57	C	0.461094	0.514107	0.361656
58	C	0.433767	0.461591	0.351072
59	C	0.458365	0.432427	0.3461
60	C	0.511678	0.456454	0.356308
61	N	0.53491	0.507075	0.033619
62	N	0.511909	0.534084	0.035618
63	N	0.429276	0.384526	0.328942
64	H	0.393458	0.371148	0.321496
65	H	0.443679	0.364528	0.317998
66	H	0.39602	0.445253	0.342668
67	C	0.49544	0.948872	0.362049
68	C	0.547971	0.974024	0.351555
69	C	0.577169	0.027786	0.346584
70	C	0.553139	0.057086	0.356742
71	N	0.502498	0.029721	0.033991
72	N	0.475464	0.979714	0.035972
73	N	0.625109	0.04663	0.329491
74	H	0.638314	0.024086	0.321836
75	H	0.644702	0.080836	0.318056
76	H	0.564356	0.952621	0.343265
77	C	0.31207	0.537066	0.999267
78	C	0.267487	0.497689	0.019924
79	C	0.22121	0.500034	0.020981
80	C	0.220778	0.542375	0.0001
81	N	0.263749	0.573755	0.309949
82	N	0.30516	0.571673	0.309532
83	N	0.180757	0.464734	0.044904
84	H	0.181605	0.436363	0.059427
85	H	0.148976	0.465192	0.04636
86	H	0.270298	0.470748	0.038455
87	C	0.472607	0.777046	0.999414
88	C	0.51205	0.771889	0.019997
89	C	0.509827	0.723321	0.020894
90	C	0.467558	0.680576	0.999911
91	N	0.436141	0.692158	0.309812
92	N	0.438096	0.735593	0.309555
93	N	0.545144	0.718176	0.044798
94	H	0.573463	0.747378	0.059389
95	H	0.544772	0.685972	0.046144
96	H	0.538901	0.801584	0.038637
97	C	0.232398	0.697852	0.998931
98	C	0.237633	0.742336	0.019822
99	C	0.286272	0.788571	0.020984
100	C	0.328991	0.789135	0.999861
101	N	0.317401	0.74623	0.309607
102	N	0.27391	0.704805	0.309162
103	N	0.291474	0.828867	0.045193
104	H	0.262346	0.827845	0.06007
105	H	0.323778	0.860549	0.046948
106	H	0.207983	0.739316	0.038648
107	C	0.679213	0.463899	0.99709
108	C	0.720914	0.507258	0.017087
109	C	0.770609	0.511975	0.018994
110	C	0.7774	0.472381	0.999928
111	N	0.736371	0.436279	0.310475
112	N	0.692125	0.432359	0.309172
113	N	0.808655	0.551399	0.041878
114	H	0.803631	0.577901	0.05522
115	H	0.842525	0.555559	0.043988
116	H	0.713949	0.532288	0.034455
117	C	0.546097	0.217418	0.997433
118	C	0.502574	0.215769	0.01703
119	C	0.497876	0.260772	0.018653
120	C	0.537607	0.307107	0.999619
121	N	0.573759	0.302071	0.310369
122	N	0.577684	0.26174	0.309357
123	N	0.458313	0.259446	0.04124
124	H	0.431727	0.227952	0.05456
125	H	0.454145	0.289157	0.043174
126	H	0.47739	0.183793	0.034339
127	C	0.792199	0.330555	0.998044
128	C	0.793914	0.288723	0.017671
129	C	0.748949	0.238995	0.019284
130	C	0.702621	0.232319	0.000173
131	N	0.707636	0.273469	0.310874
132	N	0.747909	0.317756	0.309898
133	N	0.750294	0.200809	0.041944
134	H	0.781777	0.205764	0.05532
135	H	0.720596	0.16691	0.043874
136	H	0.825865	0.295579	0.035053
137	C	0.193691	0.645985	0.337102
138	N	0.14452	0.623521	0.351438
139	N	0.137405	0.541853	0.351868
140	C	0.186771	0.562047	0.337582
141	N	0.210648	0.612961	0.330677
142	C	0.363899	0.549938	0.337092
143	N	0.386367	0.523226	0.351424
144	C	0.438406	0.545602	0.357158
145	N	0.46809	0.597698	0.351609
146	C	0.447914	0.626904	0.337384
147	N	0.396979	0.599895	0.330637
148	C	0.459539	0.815824	0.337535
149	N	0.48629	0.865026	0.351804
150	C	0.463923	0.894697	0.357555
151	N	0.41185	0.872322	0.351905
152	C	0.382661	0.822956	0.337653
153	N	0.409615	0.798975	0.330894
154	C	0.825859	0.384122	0.335517
155	N	0.875941	0.413968	0.347424
156	C	0.898097	0.466195	0.352516
157	N	0.866971	0.487193	0.349584
158	C	0.817044	0.460108	0.33725
159	N	0.800954	0.410338	0.330607
160	C	0.625619	0.443918	0.334449
161	N	0.595731	0.464005	0.346708
162	C	0.543535	0.43388	0.352016
163	N	0.522694	0.381795	0.349083
164	C	0.549747	0.359017	0.33649
165	N	0.599469	0.392768	0.329657
166	C	0.565857	0.183614	0.334823
167	N	0.545689	0.133635	0.347095
168	C	0.575768	0.111518	0.352479
169	N	0.627872	0.142708	0.349634
170	C	0.650716	0.192537	0.337028
171	N	0.617004	0.208537	0.330136
172	C	0.981757	0.550929	0.678308
173	C	0.952556	0.497944	0.689688
174	N	0.979956	0.475035	0.368038
175	N	0.962779	0.579243	0.659753
176	H	0.985224	0.6147	0.651201
177	H	0.928644	0.56395	0.647923
178	C	0.461094	0.514107	0.694989
179	C	0.433767	0.461591	0.684408
180	C	0.458365	0.432427	0.679433
181	C	0.511678	0.456454	0.689641
182	N	0.53491	0.507075	0.366953
183	N	0.511909	0.534084	0.368952
184	N	0.429276	0.384526	0.662276
185	H	0.393458	0.371148	0.654829
186	H	0.443679	0.364528	0.651332
187	H	0.39602	0.445253	0.676
188	C	0.49544	0.948872	0.695382
189	C	0.547971	0.974024	0.684888
190	C	0.577169	0.027786	0.679917
191	C	0.553139	0.057086	0.690075
192	N	0.502498	0.029721	0.367326
193	N	0.475464	0.979714	0.369304
194	N	0.625109	0.04663	0.662823
195	H	0.638314	0.024086	0.655171
196	H	0.644702	0.080836	0.651389
197	H	0.564356	0.952621	0.676598
198	C	0.31207	0.537066	0.332599
199	C	0.267487	0.497689	0.353258
200	C	0.22121	0.500034	0.354313
201	C	0.220778	0.542375	0.333431
202	N	0.263749	0.573755	0.643284
203	N	0.30516	0.571673	0.642867
204	N	0.180757	0.464734	0.378236
205	H	0.181605	0.436363	0.39276
206	H	0.148976	0.465192	0.379694
207	H	0.270298	0.470748	0.37179
208	C	0.472607	0.777046	0.332746
209	C	0.51205	0.771889	0.353332
210	C	0.509827	0.723321	0.354229
211	C	0.467558	0.680576	0.333245
212	N	0.436141	0.692158	0.643146
213	N	0.438096	0.735593	0.642888
214	N	0.545144	0.718176	0.378132
215	H	0.573463	0.747378	0.392723
216	H	0.544772	0.685972	0.379479
217	H	0.538901	0.801584	0.371971
218	C	0.232398	0.697852	0.332264
219	C	0.237633	0.742336	0.353158
220	C	0.286272	0.788571	0.354317
221	C	0.328991	0.789135	0.333193
222	N	0.317401	0.74623	0.642941
223	N	0.27391	0.704805	0.642495
224	N	0.291474	0.828867	0.378528
225	H	0.262346	0.827845	0.393402
226	H	0.323778	0.860549	0.380282
227	H	0.207983	0.739316	0.371981
228	C	0.679213	0.463899	0.330421
229	C	0.720914	0.507258	0.35042
230	C	0.770609	0.511975	0.352328
231	C	0.7774	0.472381	0.333261
232	N	0.736371	0.436279	0.643808
233	N	0.692125	0.432359	0.642505
234	N	0.808655	0.551399	0.375213
235	H	0.803631	0.577901	0.388555
236	H	0.842525	0.555559	0.377322
237	H	0.713949	0.532288	0.367789
238	C	0.546097	0.217418	0.330766
239	C	0.502574	0.215769	0.350363
240	C	0.497876	0.260772	0.351985
241	C	0.537607	0.307107	0.332951
242	N	0.573759	0.302071	0.643704
243	N	0.577684	0.26174	0.642689
244	N	0.458313	0.259446	0.374575
245	H	0.431727	0.227952	0.387893
246	H	0.454145	0.289157	0.376506
247	H	0.47739	0.183793	0.367672
248	C	0.792199	0.330555	0.331377
249	C	0.793914	0.288723	0.351005
250	C	0.748949	0.238995	0.352617
251	C	0.702621	0.232319	0.333507
252	N	0.707636	0.273469	0.644208
253	N	0.747909	0.317756	0.64323
254	N	0.750294	0.200809	0.375277
255	H	0.781777	0.205764	0.388652
256	H	0.720596	0.16691	0.377208
257	H	0.825865	0.295579	0.368387
258	C	0.193691	0.645985	0.670435
259	N	0.14452	0.623521	0.684771
260	N	0.137405	0.541853	0.685201
261	C	0.186771	0.562047	0.670915
262	N	0.210648	0.612961	0.664009
263	C	0.363899	0.549938	0.670425
264	N	0.386367	0.523226	0.684761
265	C	0.438406	0.545602	0.690491
266	N	0.46809	0.597698	0.684942
267	C	0.447914	0.626904	0.670717
268	N	0.396979	0.599895	0.663972
269	C	0.459539	0.815824	0.670868
270	N	0.48629	0.865026	0.685137
271	C	0.463923	0.894697	0.690888
272	N	0.41185	0.872322	0.685238
273	C	0.382661	0.822956	0.670989
274	N	0.409615	0.798975	0.664227
275	C	0.825859	0.384122	0.668853
276	N	0.875941	0.413968	0.680757
277	C	0.898097	0.466195	0.685849
278	N	0.866971	0.487193	0.68292
279	C	0.817044	0.460108	0.670582
280	N	0.800954	0.410338	0.663942
281	C	0.625619	0.443918	0.667784
282	N	0.595731	0.464005	0.680041
283	C	0.543535	0.43388	0.685349
284	N	0.522694	0.381795	0.68242
285	C	0.549747	0.359017	0.669823
286	N	0.599469	0.392768	0.662991
287	C	0.565857	0.183614	0.668157
288	N	0.545689	0.133635	0.680428
289	C	0.575768	0.111518	0.685815
290	N	0.627872	0.142708	0.682967
291	C	0.650716	0.192537	0.670364
292	N	0.617004	0.208537	0.663471
293	C	0.981757	0.550929	0.01164
294	C	0.952556	0.497944	0.02302
295	N	0.979956	0.475035	0.701371
296	N	0.962779	0.579243	0.993086
297	H	0.985224	0.6147	0.984534
298	H	0.928644	0.56395	0.981259
299	C	0.461094	0.514107	0.028323
300	C	0.433767	0.461591	0.017739
301	C	0.458365	0.432427	0.012766
302	C	0.511678	0.456454	0.022974
303	N	0.53491	0.507075	0.700286
304	N	0.511909	0.534084	0.702285
305	N	0.429276	0.384526	0.995609
306	H	0.393458	0.371148	0.988162
307	H	0.443679	0.364528	0.984665
308	H	0.39602	0.445253	0.009332
309	C	0.49544	0.948872	0.028714
310	C	0.547971	0.974024	0.01822
311	C	0.577169	0.027786	0.013251
312	C	0.553139	0.057086	0.023407
313	N	0.502498	0.029721	0.700659
314	N	0.475464	0.979714	0.702641
315	N	0.625109	0.04663	0.996159
316	H	0.638314	0.024086	0.988504
317	H	0.644702	0.080836	0.984722
318	H	0.564356	0.952621	0.009932
319	C	0.31207	0.537066	0.665934
320	C	0.267487	0.497689	0.686591
321	C	0.22121	0.500034	0.687649
322	C	0.220778	0.542375	0.666763
323	N	0.263749	0.573755	0.976617
324	N	0.30516	0.571673	0.9762
325	N	0.180757	0.464734	0.711572
326	H	0.181605	0.436363	0.726093
327	H	0.148976	0.465192	0.713027
328	H	0.270298	0.470748	0.705123
329	C	0.472607	0.777046	0.666081
330	C	0.51205	0.771889	0.686665
331	C	0.509827	0.723321	0.687562
332	C	0.467558	0.680576	0.666579
333	N	0.436141	0.692158	0.976479
334	N	0.438096	0.735593	0.976224
335	N	0.545144	0.718176	0.711465
336	H	0.573463	0.747378	0.726056
337	H	0.544772	0.685972	0.712812
338	H	0.538901	0.801584	0.705304
339	C	0.232398	0.697852	0.665598
340	C	0.237633	0.742336	0.686491
341	C	0.286272	0.788571	0.687653
342	C	0.328991	0.789135	0.666528
343	N	0.317401	0.74623	0.976274
344	N	0.27391	0.704805	0.975831
345	N	0.291474	0.828867	0.711861
346	H	0.262346	0.827845	0.726738
347	H	0.323778	0.860549	0.713614
348	H	0.207983	0.739316	0.705314
349	C	0.679213	0.463899	0.663754
350	C	0.720914	0.507258	0.683753
351	C	0.770609	0.511975	0.685661
352	C	0.7774	0.472381	0.666595
353	N	0.736371	0.436279	0.977141
354	N	0.692125	0.432359	0.975841
355	N	0.808655	0.551399	0.708546
356	H	0.803631	0.577901	0.721888
357	H	0.842525	0.555559	0.710655
358	H	0.713949	0.532288	0.701122
359	C	0.546097	0.217418	0.6641
360	C	0.502574	0.215769	0.683699
361	C	0.497876	0.260772	0.685322
362	C	0.537607	0.307107	0.666283
363	N	0.573759	0.302071	0.977037
364	N	0.577684	0.26174	0.976026
365	N	0.458313	0.259446	0.707908
366	H	0.431727	0.227952	0.721226
367	H	0.454145	0.289157	0.709842
368	H	0.47739	0.183793	0.701005
369	C	0.792199	0.330555	0.664711
370	C	0.793914	0.288723	0.684338
371	C	0.748949	0.238995	0.68595
372	C	0.702621	0.232319	0.666841
373	N	0.707636	0.273469	0.977541
374	N	0.747909	0.317756	0.976566
375	N	0.750294	0.200809	0.708613
376	H	0.781777	0.205764	0.721988
377	H	0.720596	0.16691	0.710541
378	H	0.825865	0.295579	0.70172
