data_C288H144N72O36_2018-02-15_10:36:58
#******************************************
#
# CIF file created by Zeo++
# Zeo++ is an open source package to
# analyze microporous materials
#
#*******************************************

_cell_length_a		29.069   
_cell_length_b		29.069   
_cell_length_c		29.5274   
_cell_angle_alpha		90   
_cell_angle_beta		90   
_cell_angle_gamma		120   

_symmetry_space_group_name_H-M		'P1'
_symmetry_Int_Tables_number		1
_symmetry_cell_setting		Monoclinic

loop_
_symmetry_equiv_pos_as_xyz
'+x,+y,+z'

loop_
_atom_site_label
_atom_site_type_symbol
_atom_site_fract_x
_atom_site_fract_y
_atom_site_fract_z
1	C	0.039999	0.271999	0.300336
2	C	0.068603	0.286303	0.008225
3	C	0.040013	0.272009	0.049867
4	H	0.059665	0.281833	0.269975
5	O	0.062096	0.283056	0.092364
6	H	0.101006	0.302488	0.091547
7	C	0.039999	0.271999	0.63367
8	C	0.068603	0.286303	0.341558
9	C	0.040013	0.272009	0.383201
10	H	0.059665	0.281833	0.603308
11	O	0.062096	0.283056	0.425697
12	H	0.101006	0.302488	0.424881
13	C	0.039999	0.271999	0.967002
14	C	0.068603	0.286303	0.674889
15	C	0.040013	0.272009	0.716532
16	H	0.059665	0.281833	0.93664
17	O	0.062096	0.283056	0.759028
18	H	0.101006	0.302488	0.758212
19	C	0.039999	0.772	0.300336
20	C	0.068603	0.786304	0.008225
21	C	0.040015	0.772011	0.049867
22	H	0.059666	0.781835	0.269975
23	O	0.062097	0.783058	0.092364
24	H	0.101007	0.802491	0.091547
25	C	0.039999	0.772	0.63367
26	C	0.068603	0.786304	0.341558
27	C	0.040015	0.772011	0.383201
28	H	0.059666	0.781835	0.603308
29	O	0.062097	0.783058	0.425697
30	H	0.101007	0.802491	0.424881
31	C	0.039999	0.772	0.967002
32	C	0.068603	0.786304	0.674889
33	C	0.040015	0.772011	0.716532
34	H	0.059666	0.781835	0.93664
35	O	0.062097	0.783058	0.759028
36	H	0.101007	0.802491	0.758212
37	N	0.151771	0.36824	0.006877
38	C	0.124398	0.314202	0.006548
39	N	0.151771	0.287536	0.006873
40	N	0.151771	0.36824	0.340213
41	C	0.124398	0.314202	0.339881
42	N	0.151771	0.287536	0.34021
43	N	0.151771	0.36824	0.673545
44	C	0.124398	0.314202	0.673213
45	N	0.151771	0.287536	0.673542
46	N	0.151771	0.86824	0.006877
47	C	0.124397	0.814201	0.006548
48	N	0.15177	0.787535	0.006873
49	N	0.151771	0.86824	0.340213
50	C	0.124397	0.814201	0.339881
51	N	0.15177	0.787535	0.34021
52	N	0.151771	0.86824	0.673545
53	C	0.124397	0.814201	0.673213
54	N	0.15177	0.787535	0.673542
55	C	0.20581	0.395614	0.006541
56	C	0.20581	0.314199	0.006538
57	N	0.232473	0.368238	0.00687
58	C	0.233709	0.286303	0.008219
59	H	0.238181	0.281832	0.26997
60	O	0.236952	0.283046	0.092358
61	H	0.21752	0.302524	0.09154
62	C	0.233712	0.451409	0.008222
63	H	0.23818	0.460347	0.269973
64	O	0.236954	0.457912	0.092361
65	H	0.217523	0.419003	0.091544
66	C	0.20581	0.395614	0.339878
67	C	0.20581	0.314199	0.339871
68	N	0.232473	0.368238	0.340207
69	C	0.233709	0.286303	0.341551
70	H	0.238181	0.281832	0.603302
71	O	0.236952	0.283046	0.42569
72	H	0.21752	0.302524	0.424874
73	C	0.233712	0.451409	0.341554
74	H	0.23818	0.460347	0.603305
75	O	0.236954	0.457912	0.425693
76	H	0.217523	0.419003	0.424877
77	C	0.20581	0.395614	0.67321
78	C	0.20581	0.314199	0.673206
79	N	0.232473	0.368238	0.673538
80	C	0.233709	0.286303	0.674886
81	H	0.238181	0.281832	0.936637
82	O	0.236952	0.283046	0.759025
83	H	0.21752	0.302524	0.758205
84	C	0.233712	0.451409	0.674886
85	H	0.23818	0.460347	0.93664
86	O	0.236954	0.457912	0.759028
87	H	0.217523	0.419003	0.758209
88	C	0.205809	0.895613	0.006541
89	C	0.20581	0.814201	0.006538
90	N	0.232474	0.86824	0.00687
91	C	0.233708	0.786304	0.008219
92	H	0.23818	0.781831	0.26997
93	O	0.236952	0.783046	0.092358
94	H	0.217519	0.802523	0.09154
95	C	0.23371	0.951407	0.008222
96	H	0.238181	0.960349	0.269973
97	O	0.236955	0.957914	0.092361
98	H	0.217522	0.919002	0.091544
99	C	0.205809	0.895613	0.339878
100	C	0.20581	0.814201	0.339871
101	N	0.232474	0.86824	0.340207
102	C	0.233708	0.786304	0.341551
103	H	0.23818	0.781831	0.603302
104	O	0.236952	0.783046	0.42569
105	H	0.217519	0.802523	0.424874
106	C	0.23371	0.951407	0.341554
107	H	0.238181	0.960349	0.603305
108	O	0.236955	0.957914	0.425693
109	H	0.217522	0.919002	0.424877
110	C	0.205809	0.895613	0.67321
111	C	0.20581	0.814201	0.673206
112	N	0.232474	0.86824	0.673538
113	C	0.233708	0.786304	0.674886
114	H	0.23818	0.781831	0.936637
115	O	0.236952	0.783046	0.759025
116	H	0.217519	0.802523	0.758205
117	C	0.23371	0.951407	0.674886
118	H	0.238181	0.960349	0.93664
119	O	0.236955	0.957914	0.759028
120	H	0.217522	0.919002	0.758209
121	C	0.318211	0.120412	0.00771
122	N	0.372246	0.147765	0.007743
123	C	0.3996	0.2018	0.007706
124	N	0.372247	0.228482	0.007743
125	C	0.318211	0.201802	0.00771
126	N	0.29153	0.147766	0.007747
127	C	0.290323	0.229692	0.341165
128	C	0.275989	0.244026	0.300116
129	C	0.248013	0.272001	0.300332
130	C	0.248001	0.272009	0.049863
131	H	0.285792	0.234223	0.269738
132	C	0.276078	0.243934	0.049025
133	H	0.286263	0.233746	0.079062
134	C	0.290321	0.064633	0.341165
135	C	0.275988	0.035963	0.300117
136	C	0.248014	0.480014	0.300334
137	C	0.248003	0.479998	0.049865
138	H	0.28579	0.055568	0.269738
139	C	0.276077	0.036147	0.049025
140	H	0.286263	0.056522	0.079062
141	C	0.455378	0.229688	0.341165
142	C	0.484051	0.244024	0.300117
143	H	0.464447	0.234222	0.269739
144	C	0.483864	0.243933	0.049026
145	H	0.463486	0.233746	0.079062
146	C	0.318211	0.120412	0.341043
147	N	0.372246	0.147765	0.341077
148	C	0.3996	0.2018	0.341043
149	N	0.372247	0.228482	0.34108
150	C	0.318211	0.201802	0.341043
151	N	0.29153	0.147766	0.34108
152	C	0.290323	0.229692	0.674497
153	C	0.275989	0.244026	0.63345
154	C	0.248013	0.272001	0.633667
155	C	0.248001	0.272009	0.383197
156	H	0.285792	0.234223	0.603071
157	C	0.276078	0.243934	0.382357
158	H	0.286263	0.233746	0.412394
159	C	0.290321	0.064633	0.674497
160	C	0.275988	0.035963	0.63345
161	C	0.248014	0.480014	0.633667
162	C	0.248003	0.479998	0.383197
163	H	0.28579	0.055568	0.603071
164	C	0.276077	0.036147	0.382357
165	H	0.286263	0.056522	0.412394
166	C	0.455378	0.229688	0.674497
167	C	0.484051	0.244024	0.63345
168	H	0.464447	0.234222	0.603071
169	C	0.483864	0.243933	0.382357
170	H	0.463486	0.233746	0.412394
171	C	0.318211	0.120412	0.674375
172	N	0.372246	0.147765	0.674412
173	C	0.3996	0.2018	0.674375
174	N	0.372247	0.228482	0.674412
175	C	0.318211	0.201802	0.674378
176	N	0.29153	0.147766	0.674412
177	C	0.290323	0.229692	0.007832
178	C	0.275989	0.244026	0.966781
179	C	0.248013	0.272001	0.966998
180	C	0.248001	0.272009	0.716529
181	H	0.285792	0.234223	0.936403
182	C	0.276078	0.243934	0.715689
183	H	0.286263	0.233746	0.745729
184	C	0.290321	0.064633	0.007832
185	C	0.275988	0.035963	0.966781
186	C	0.248014	0.480014	0.967002
187	C	0.248003	0.479998	0.716532
188	H	0.28579	0.055568	0.936403
189	C	0.276077	0.036147	0.715692
190	H	0.286263	0.056522	0.745729
191	C	0.455378	0.229688	0.007832
192	C	0.484051	0.244024	0.966781
193	H	0.464447	0.234222	0.936403
194	C	0.483864	0.243933	0.715692
195	H	0.463486	0.233746	0.745729
196	C	0.318211	0.620414	0.00771
197	N	0.372246	0.647767	0.007743
198	C	0.3996	0.701802	0.007706
199	N	0.372247	0.728483	0.007743
200	C	0.318211	0.701802	0.00771
201	N	0.291529	0.647767	0.007747
202	C	0.290322	0.729691	0.341165
203	C	0.275989	0.744027	0.300116
204	C	0.248012	0.772	0.300332
205	C	0.248002	0.772011	0.049863
206	H	0.285791	0.734223	0.269738
207	C	0.276078	0.743935	0.049025
208	H	0.286263	0.733747	0.079062
209	C	0.290322	0.564635	0.341165
210	C	0.275987	0.535963	0.300117
211	C	0.248015	0.980016	0.300334
212	C	0.248002	0.979996	0.049865
213	H	0.285791	0.55557	0.269738
214	C	0.276078	0.53615	0.049025
215	H	0.286263	0.556524	0.079062
216	C	0.455379	0.729691	0.341165
217	C	0.484049	0.744023	0.300117
218	H	0.464446	0.734223	0.269739
219	C	0.483862	0.743931	0.049026
220	H	0.463487	0.733747	0.079062
221	C	0.318211	0.620414	0.341043
222	N	0.372246	0.647767	0.341077
223	C	0.3996	0.701802	0.341043
224	N	0.372247	0.728483	0.34108
225	C	0.318211	0.701802	0.341043
226	N	0.291529	0.647767	0.34108
227	C	0.290322	0.729691	0.674497
228	C	0.275989	0.744027	0.63345
229	C	0.248012	0.772	0.633667
230	C	0.248002	0.772011	0.383197
231	H	0.285791	0.734223	0.603071
232	C	0.276078	0.743935	0.382357
233	H	0.286263	0.733747	0.412394
234	C	0.290322	0.564635	0.674497
235	C	0.275987	0.535963	0.63345
236	C	0.248015	0.980016	0.633667
237	C	0.248002	0.979996	0.383197
238	H	0.285791	0.55557	0.603071
239	C	0.276078	0.53615	0.382357
240	H	0.286263	0.556524	0.412394
241	C	0.455379	0.729691	0.674497
242	C	0.484049	0.744023	0.63345
243	H	0.464446	0.734223	0.603071
244	C	0.483862	0.743931	0.382357
245	H	0.463487	0.733747	0.412394
246	C	0.318211	0.620414	0.674375
247	N	0.372246	0.647767	0.674412
248	C	0.3996	0.701802	0.674375
249	N	0.372247	0.728483	0.674412
250	C	0.318211	0.701802	0.674378
251	N	0.291529	0.647767	0.674412
252	C	0.290322	0.729691	0.007832
253	C	0.275989	0.744027	0.966781
254	C	0.248012	0.772	0.966998
255	C	0.248002	0.772011	0.716529
256	H	0.285791	0.734223	0.936403
257	C	0.276078	0.743935	0.715689
258	H	0.286263	0.733747	0.745729
259	C	0.290322	0.564635	0.007832
260	C	0.275987	0.535963	0.966781
261	C	0.248015	0.980016	0.967002
262	C	0.248002	0.979996	0.716532
263	H	0.285791	0.55557	0.936403
264	C	0.276078	0.53615	0.715692
265	H	0.286263	0.556524	0.745729
266	C	0.455379	0.729691	0.007832
267	C	0.484049	0.744023	0.966781
268	H	0.464446	0.734223	0.936403
269	C	0.483862	0.743931	0.715692
270	H	0.463487	0.733747	0.745729
271	C	0.705812	0.395614	0.006541
272	N	0.651773	0.36824	0.006877
273	C	0.624399	0.314202	0.006548
274	N	0.651773	0.287536	0.006873
275	C	0.705811	0.314199	0.006538
276	N	0.732473	0.368238	0.00687
277	C	0.818213	0.120412	0.00771
278	N	0.872245	0.147765	0.007743
279	C	0.8996	0.2018	0.007706
280	N	0.872248	0.228482	0.007743
281	C	0.818211	0.201802	0.00771
282	N	0.791531	0.147766	0.007747
283	C	0.790325	0.229692	0.341165
284	C	0.775988	0.244026	0.300116
285	C	0.748013	0.272001	0.300332
286	C	0.733709	0.286303	0.008219
287	C	0.748004	0.272009	0.049863
288	H	0.738181	0.281832	0.26997
289	H	0.785793	0.234223	0.269738
290	C	0.77608	0.243934	0.049025
291	H	0.786263	0.233746	0.079062
292	O	0.736955	0.283046	0.092358
293	H	0.717521	0.302524	0.09154
294	C	0.790323	0.064633	0.341165
295	C	0.775988	0.035963	0.300117
296	C	0.748015	0.480014	0.300334
297	C	0.733713	0.451409	0.008222
298	C	0.748004	0.479998	0.049865
299	H	0.738182	0.460347	0.269973
300	H	0.785791	0.055568	0.269738
301	C	0.776077	0.036147	0.049025
302	H	0.786264	0.056522	0.079062
303	O	0.736954	0.457912	0.092361
304	H	0.717524	0.419003	0.091544
305	C	0.955379	0.229688	0.341165
306	C	0.984051	0.244024	0.300117
307	C	0.540001	0.271999	0.300336
308	C	0.568605	0.286303	0.008225
309	C	0.540016	0.272009	0.049867
310	H	0.559665	0.281833	0.269975
311	H	0.964447	0.234222	0.269739
312	C	0.983864	0.243933	0.049026
313	H	0.96349	0.233746	0.079062
314	O	0.562096	0.283056	0.092364
315	H	0.601008	0.302488	0.091547
316	C	0.705812	0.395614	0.339878
317	N	0.651773	0.36824	0.340213
318	C	0.624399	0.314202	0.339881
319	N	0.651773	0.287536	0.34021
320	C	0.705811	0.314199	0.339871
321	N	0.732473	0.368238	0.340207
322	C	0.818213	0.120412	0.341043
323	N	0.872245	0.147765	0.341077
324	C	0.8996	0.2018	0.341043
325	N	0.872248	0.228482	0.34108
326	C	0.818211	0.201802	0.341043
327	N	0.791531	0.147766	0.34108
328	C	0.790325	0.229692	0.674497
329	C	0.775988	0.244026	0.63345
330	C	0.748013	0.272001	0.633667
331	C	0.733709	0.286303	0.341551
332	C	0.748004	0.272009	0.383197
333	H	0.738181	0.281832	0.603302
334	H	0.785793	0.234223	0.603071
335	C	0.77608	0.243934	0.382357
336	H	0.786263	0.233746	0.412394
337	O	0.736955	0.283046	0.42569
338	H	0.717521	0.302524	0.424874
339	C	0.790323	0.064633	0.674497
340	C	0.775988	0.035963	0.63345
341	C	0.748015	0.480014	0.633667
342	C	0.733713	0.451409	0.341554
343	C	0.748004	0.479998	0.383197
344	H	0.738182	0.460347	0.603305
345	H	0.785791	0.055568	0.603071
346	C	0.776077	0.036147	0.382357
347	H	0.786264	0.056522	0.412394
348	O	0.736954	0.457912	0.425693
349	H	0.717524	0.419003	0.424877
350	C	0.955379	0.229688	0.674497
351	C	0.984051	0.244024	0.63345
352	C	0.540001	0.271999	0.63367
353	C	0.568605	0.286303	0.341558
354	C	0.540016	0.272009	0.383201
355	H	0.559665	0.281833	0.603308
356	H	0.964447	0.234222	0.603071
357	C	0.983864	0.243933	0.382357
358	H	0.96349	0.233746	0.412394
359	O	0.562096	0.283056	0.425697
360	H	0.601008	0.302488	0.424881
361	C	0.705812	0.395614	0.67321
362	N	0.651773	0.36824	0.673545
363	C	0.624399	0.314202	0.673213
364	N	0.651773	0.287536	0.673542
365	C	0.705811	0.314199	0.673206
366	N	0.732473	0.368238	0.673538
367	C	0.818213	0.120412	0.674375
368	N	0.872245	0.147765	0.674412
369	C	0.8996	0.2018	0.674375
370	N	0.872248	0.228482	0.674412
371	C	0.818211	0.201802	0.674378
372	N	0.791531	0.147766	0.674412
373	C	0.790325	0.229692	0.007832
374	C	0.775988	0.244026	0.966781
375	C	0.748013	0.272001	0.966998
376	C	0.733709	0.286303	0.674886
377	C	0.748004	0.272009	0.716529
378	H	0.738181	0.281832	0.936637
379	H	0.785793	0.234223	0.936403
380	C	0.77608	0.243934	0.715689
381	H	0.786263	0.233746	0.745729
382	O	0.736955	0.283046	0.759025
383	H	0.717521	0.302524	0.758205
384	C	0.790323	0.064633	0.007832
385	C	0.775988	0.035963	0.966781
386	C	0.748015	0.480014	0.967002
387	C	0.733713	0.451409	0.674886
388	C	0.748004	0.479998	0.716532
389	H	0.738182	0.460347	0.93664
390	H	0.785791	0.055568	0.936403
391	C	0.776077	0.036147	0.715692
392	H	0.786264	0.056522	0.745729
393	O	0.736954	0.457912	0.759028
394	H	0.717524	0.419003	0.758209
395	C	0.955379	0.229688	0.007832
396	C	0.984051	0.244024	0.966781
397	C	0.540001	0.271999	0.967002
398	C	0.568605	0.286303	0.674889
399	C	0.540016	0.272009	0.716532
400	H	0.559665	0.281833	0.93664
401	H	0.964447	0.234222	0.936403
402	C	0.983864	0.243933	0.715692
403	H	0.96349	0.233746	0.745729
404	O	0.562096	0.283056	0.759028
405	H	0.601008	0.302488	0.758212
406	C	0.70581	0.895613	0.006541
407	N	0.651771	0.86824	0.006877
408	C	0.624398	0.814201	0.006548
409	N	0.651771	0.787535	0.006873
410	C	0.705811	0.814201	0.006538
411	N	0.732475	0.86824	0.00687
412	C	0.818212	0.620414	0.00771
413	N	0.872248	0.647767	0.007743
414	C	0.899602	0.701802	0.007706
415	N	0.872247	0.728483	0.007743
416	C	0.818213	0.701802	0.00771
417	N	0.791529	0.647767	0.007747
418	C	0.790323	0.729691	0.341165
419	C	0.77599	0.744027	0.300116
420	C	0.748014	0.772	0.300332
421	C	0.733709	0.786304	0.008219
422	C	0.748003	0.772011	0.049863
423	H	0.738179	0.781831	0.26997
424	H	0.785791	0.734223	0.269738
425	C	0.776079	0.743935	0.049025
426	H	0.786265	0.733747	0.079062
427	O	0.736953	0.783046	0.092358
428	H	0.71752	0.802523	0.09154
429	C	0.790323	0.564635	0.341165
430	C	0.775987	0.535963	0.300117
431	C	0.748015	0.980016	0.300334
432	C	0.733711	0.951407	0.008222
433	C	0.748002	0.979996	0.049865
434	H	0.738182	0.960349	0.269973
435	H	0.78579	0.55557	0.269738
436	C	0.77608	0.53615	0.049025
437	H	0.786263	0.556524	0.079062
438	O	0.736956	0.957914	0.092361
439	H	0.717522	0.919002	0.091544
440	C	0.955382	0.729691	0.341165
441	C	0.984048	0.744023	0.300117
442	C	0.539999	0.772	0.300336
443	C	0.568604	0.786304	0.008225
444	C	0.540015	0.772011	0.049867
445	H	0.559666	0.781835	0.269975
446	H	0.964446	0.734223	0.269739
447	C	0.983862	0.743931	0.049026
448	H	0.963488	0.733747	0.079062
449	O	0.562098	0.783058	0.092364
450	H	0.601008	0.802491	0.091547
451	C	0.70581	0.895613	0.339878
452	N	0.651771	0.86824	0.340213
453	C	0.624398	0.814201	0.339881
454	N	0.651771	0.787535	0.34021
455	C	0.705811	0.814201	0.339871
456	N	0.732475	0.86824	0.340207
457	C	0.818212	0.620414	0.341043
458	N	0.872248	0.647767	0.341077
459	C	0.899602	0.701802	0.341043
460	N	0.872247	0.728483	0.34108
461	C	0.818213	0.701802	0.341043
462	N	0.791529	0.647767	0.34108
463	C	0.790323	0.729691	0.674497
464	C	0.77599	0.744027	0.63345
465	C	0.748014	0.772	0.633667
466	C	0.733709	0.786304	0.341551
467	C	0.748003	0.772011	0.383197
468	H	0.738179	0.781831	0.603302
469	H	0.785791	0.734223	0.603071
470	C	0.776079	0.743935	0.382357
471	H	0.786265	0.733747	0.412394
472	O	0.736953	0.783046	0.42569
473	H	0.71752	0.802523	0.424874
474	C	0.790323	0.564635	0.674497
475	C	0.775987	0.535963	0.63345
476	C	0.748015	0.980016	0.633667
477	C	0.733711	0.951407	0.341554
478	C	0.748002	0.979996	0.383197
479	H	0.738182	0.960349	0.603305
480	H	0.78579	0.55557	0.603071
481	C	0.77608	0.53615	0.382357
482	H	0.786263	0.556524	0.412394
483	O	0.736956	0.957914	0.425693
484	H	0.717522	0.919002	0.424877
485	C	0.955382	0.729691	0.674497
486	C	0.984048	0.744023	0.63345
487	C	0.539999	0.772	0.63367
488	C	0.568604	0.786304	0.341558
489	C	0.540015	0.772011	0.383201
490	H	0.559666	0.781835	0.603308
491	H	0.964446	0.734223	0.603071
492	C	0.983862	0.743931	0.382357
493	H	0.963488	0.733747	0.412394
494	O	0.562098	0.783058	0.425697
495	H	0.601008	0.802491	0.424881
496	C	0.70581	0.895613	0.67321
497	N	0.651771	0.86824	0.673545
498	C	0.624398	0.814201	0.673213
499	N	0.651771	0.787535	0.673542
500	C	0.705811	0.814201	0.673206
501	N	0.732475	0.86824	0.673538
502	C	0.818212	0.620414	0.674375
503	N	0.872248	0.647767	0.674412
504	C	0.899602	0.701802	0.674375
505	N	0.872247	0.728483	0.674412
506	C	0.818213	0.701802	0.674378
507	N	0.791529	0.647767	0.674412
508	C	0.790323	0.729691	0.007832
509	C	0.77599	0.744027	0.966781
510	C	0.748014	0.772	0.966998
511	C	0.733709	0.786304	0.674886
512	C	0.748003	0.772011	0.716529
513	H	0.738179	0.781831	0.936637
514	H	0.785791	0.734223	0.936403
515	C	0.776079	0.743935	0.715689
516	H	0.786265	0.733747	0.745729
517	O	0.736953	0.783046	0.759025
518	H	0.71752	0.802523	0.758205
519	C	0.790323	0.564635	0.007832
520	C	0.775987	0.535963	0.966781
521	C	0.748015	0.980016	0.967002
522	C	0.733711	0.951407	0.674886
523	C	0.748002	0.979996	0.716532
524	H	0.738182	0.960349	0.93664
525	H	0.78579	0.55557	0.936403
526	C	0.77608	0.53615	0.715692
527	H	0.786263	0.556524	0.745729
528	O	0.736956	0.957914	0.759028
529	H	0.717522	0.919002	0.758209
530	C	0.955382	0.729691	0.007832
531	C	0.984048	0.744023	0.966781
532	C	0.539999	0.772	0.967002
533	C	0.568604	0.786304	0.674889
534	C	0.540015	0.772011	0.716532
535	H	0.559666	0.781835	0.93664
536	H	0.964446	0.734223	0.936403
537	C	0.983862	0.743931	0.715692
538	H	0.963488	0.733747	0.745729
539	O	0.562098	0.783058	0.759028
540	H	0.601008	0.802491	0.758212
