data_C252H144N144_2018-02-15_10:37:43
#******************************************
#
# CIF file created by Zeo++
# Zeo++ is an open source package to
# analyze microporous materials
#
#*******************************************

_cell_length_a		28.7668   
_cell_length_b		28.7669   
_cell_length_c		29.4314   
_cell_angle_alpha		90   
_cell_angle_beta		90   
_cell_angle_gamma		120   

_symmetry_space_group_name_H-M		'P1'
_symmetry_Int_Tables_number		1
_symmetry_cell_setting		Monoclinic

loop_
_symmetry_equiv_pos_as_xyz
'+x,+y,+z'

loop_
_atom_site_label
_atom_site_type_symbol
_atom_site_fract_x
_atom_site_fract_y
_atom_site_fract_z
1	C	0.208504	0.397689	0.007798
2	N	0.153966	0.370185	0.008219
3	C	0.126463	0.315647	0.007812
4	N	0.153966	0.288613	0.008206
5	C	0.208505	0.315644	0.007785
6	N	0.235537	0.370183	0.008189
7	C	0.32048	0.121636	0.009809
8	N	0.375024	0.149129	0.009689
9	C	0.402516	0.203673	0.009799
10	N	0.375023	0.230724	0.009685
11	C	0.320479	0.203672	0.009805
12	N	0.293428	0.149128	0.009696
13	C	0.292432	0.231718	0.34243
14	N	0.278508	0.245628	0.048783
15	C	0.251203	0.272935	0.051318
16	C	0.236565	0.287591	0.009976
17	N	0.250512	0.273661	0.303591
18	C	0.277734	0.246439	0.301554
19	H	0.287096	0.237088	0.270647
20	C	0.238331	0.285804	0.096586
21	H	0.25328	0.270851	0.123717
22	H	0.194926	0.267407	0.100375
23	H	0.256733	0.32921	0.100378
24	C	0.292432	0.065543	0.342437
25	N	0.278506	0.037712	0.048791
26	C	0.251201	0.4831	0.051329
27	C	0.236568	0.453802	0.009988
28	N	0.25052	0.481679	0.303602
29	C	0.27774	0.036122	0.301562
30	H	0.287105	0.054833	0.270654
31	C	0.238327	0.457359	0.096597
32	H	0.253274	0.487263	0.123727
33	H	0.256732	0.432359	0.100392
34	H	0.194923	0.432351	0.100385
35	C	0.45861	0.231719	0.342434
36	N	0.486433	0.245631	0.04879
37	C	0.041045	0.272937	0.051336
38	C	0.070349	0.287587	0.009998
39	N	0.04248	0.273653	0.303609
40	C	0.488036	0.246433	0.301562
41	H	0.46933	0.23708	0.270652
42	C	0.066777	0.285803	0.096606
43	H	0.036869	0.270849	0.123733
44	H	0.091782	0.329207	0.100401
45	H	0.091782	0.267403	0.100401
46	C	0.208504	0.397689	0.341129
47	N	0.153966	0.370185	0.341554
48	C	0.126463	0.315647	0.341146
49	N	0.153966	0.288613	0.34154
50	C	0.208505	0.315644	0.341119
51	N	0.235537	0.370183	0.341523
52	C	0.32048	0.121636	0.343144
53	N	0.375024	0.149129	0.343022
54	C	0.402516	0.203673	0.343134
55	N	0.375023	0.230724	0.343018
56	C	0.320479	0.203672	0.343137
57	N	0.293428	0.149128	0.343028
58	C	0.292432	0.231718	0.675765
59	N	0.278508	0.245628	0.382116
60	C	0.251203	0.272935	0.384651
61	C	0.236565	0.287591	0.34331
62	N	0.250512	0.273661	0.636925
63	C	0.277734	0.246439	0.634887
64	H	0.287096	0.237088	0.603981
65	C	0.238331	0.285804	0.429919
66	H	0.25328	0.270851	0.457049
67	H	0.194926	0.267407	0.433707
68	H	0.256733	0.32921	0.43371
69	C	0.292432	0.065543	0.675772
70	N	0.278506	0.037712	0.382123
71	C	0.251201	0.4831	0.384661
72	C	0.236568	0.453802	0.343321
73	N	0.25052	0.481679	0.636936
74	C	0.27774	0.036122	0.634894
75	H	0.287105	0.054833	0.603988
76	C	0.238327	0.457359	0.429929
77	H	0.253274	0.487263	0.45706
78	H	0.256732	0.432359	0.433724
79	H	0.194923	0.432351	0.433717
80	C	0.45861	0.231719	0.675768
81	N	0.486433	0.245631	0.382123
82	C	0.041045	0.272937	0.384668
83	C	0.070349	0.287587	0.343331
84	N	0.04248	0.273653	0.636942
85	C	0.488036	0.246433	0.634894
86	H	0.46933	0.23708	0.603984
87	C	0.066777	0.285803	0.429939
88	H	0.036869	0.270849	0.457066
89	H	0.091782	0.329207	0.433734
90	H	0.091782	0.267403	0.433734
91	C	0.208504	0.397689	0.674464
92	N	0.153966	0.370185	0.674885
93	C	0.126463	0.315647	0.674477
94	N	0.153966	0.288613	0.674875
95	C	0.208505	0.315644	0.67445
96	N	0.235537	0.370183	0.674858
97	C	0.32048	0.121636	0.676475
98	N	0.375024	0.149129	0.676356
99	C	0.402516	0.203673	0.676465
100	N	0.375023	0.230724	0.676353
101	C	0.320479	0.203672	0.676472
102	N	0.293428	0.149128	0.676363
103	C	0.292432	0.231718	0.009096
104	N	0.278508	0.245628	0.71545
105	C	0.251203	0.272935	0.717985
106	C	0.236565	0.287591	0.676642
107	N	0.250512	0.273661	0.970257
108	C	0.277734	0.246439	0.968221
109	H	0.287096	0.237088	0.937312
110	C	0.238331	0.285804	0.763253
111	H	0.25328	0.270851	0.790384
112	H	0.194926	0.267407	0.767042
113	H	0.256733	0.32921	0.767045
114	C	0.292432	0.065543	0.009103
115	N	0.278506	0.037712	0.715457
116	C	0.251201	0.4831	0.717995
117	C	0.236568	0.453802	0.676655
118	N	0.25052	0.481679	0.970267
119	C	0.27774	0.036122	0.968228
120	H	0.287105	0.054833	0.937322
121	C	0.238327	0.457359	0.763263
122	H	0.253274	0.487263	0.790394
123	H	0.256732	0.432359	0.767059
124	H	0.194923	0.432351	0.767052
125	C	0.45861	0.231719	0.009099
126	N	0.486433	0.245631	0.715457
127	C	0.041045	0.272937	0.718002
128	C	0.070349	0.287587	0.676665
129	N	0.04248	0.273653	0.970274
130	C	0.488036	0.246433	0.968228
131	H	0.46933	0.23708	0.937319
132	C	0.066777	0.285803	0.763273
133	H	0.036869	0.270849	0.790401
134	H	0.091782	0.329207	0.767069
135	H	0.091782	0.267403	0.767065
136	C	0.208504	0.89769	0.007798
137	N	0.153966	0.870186	0.008219
138	C	0.126463	0.815648	0.007812
139	N	0.153966	0.788613	0.008206
140	C	0.208505	0.815644	0.007785
141	N	0.235536	0.870182	0.008189
142	C	0.320479	0.621635	0.009809
143	N	0.375023	0.649127	0.009689
144	C	0.402517	0.703673	0.0098
145	N	0.375023	0.730724	0.009685
146	C	0.320479	0.703673	0.009805
147	N	0.293427	0.649127	0.009696
148	C	0.292432	0.731719	0.34243
149	N	0.278508	0.745628	0.048783
150	C	0.251203	0.772935	0.051318
151	C	0.236564	0.78759	0.009976
152	N	0.250512	0.773661	0.303591
153	C	0.277733	0.746438	0.301554
154	H	0.287094	0.737086	0.270647
155	C	0.238331	0.785804	0.096586
156	H	0.25328	0.770851	0.123717
157	H	0.194926	0.767407	0.100375
158	H	0.256731	0.829207	0.100378
159	C	0.292433	0.565544	0.342437
160	N	0.278505	0.537711	0.04879
161	C	0.251201	0.983099	0.051329
162	C	0.236568	0.953801	0.009988
163	N	0.250517	0.981675	0.303602
164	C	0.27774	0.536121	0.301562
165	H	0.287103	0.55483	0.270654
166	C	0.238327	0.957358	0.096597
167	H	0.253274	0.987262	0.123727
168	H	0.256731	0.932359	0.100392
169	H	0.194922	0.932351	0.100385
170	C	0.458609	0.731719	0.342434
171	N	0.486434	0.745632	0.04879
172	C	0.041044	0.772935	0.051336
173	C	0.070348	0.787586	0.009998
174	N	0.04248	0.773653	0.303609
175	C	0.488036	0.74643	0.301562
176	H	0.46933	0.737078	0.270652
177	C	0.066778	0.785804	0.096606
178	H	0.036869	0.770847	0.123733
179	H	0.091782	0.829207	0.100401
180	H	0.091782	0.767403	0.100401
181	C	0.208504	0.89769	0.341129
182	N	0.153966	0.870186	0.341554
183	C	0.126463	0.815648	0.341146
184	N	0.153966	0.788613	0.34154
185	C	0.208505	0.815644	0.341119
186	N	0.235536	0.870182	0.341523
187	C	0.320479	0.621635	0.343144
188	N	0.375023	0.649127	0.343022
189	C	0.402517	0.703673	0.343134
190	N	0.375023	0.730724	0.343018
191	C	0.320479	0.703673	0.343137
192	N	0.293427	0.649127	0.343028
193	C	0.292432	0.731719	0.675765
194	N	0.278508	0.745628	0.382116
195	C	0.251203	0.772935	0.384651
196	C	0.236564	0.78759	0.34331
197	N	0.250512	0.773661	0.636925
198	C	0.277733	0.746438	0.634887
199	H	0.287094	0.737086	0.603981
200	C	0.238331	0.785804	0.429919
201	H	0.25328	0.770851	0.457049
202	H	0.194926	0.767407	0.433707
203	H	0.256731	0.829207	0.43371
204	C	0.292433	0.565544	0.675772
205	N	0.278505	0.537711	0.382123
206	C	0.251201	0.983099	0.384661
207	C	0.236568	0.953801	0.343321
208	N	0.250517	0.981675	0.636936
209	C	0.27774	0.536121	0.634894
210	H	0.287103	0.55483	0.603988
211	C	0.238327	0.957358	0.429929
212	H	0.253274	0.987262	0.45706
213	H	0.256731	0.932359	0.433724
214	H	0.194922	0.932351	0.433717
215	C	0.458609	0.731719	0.675768
216	N	0.486434	0.745632	0.382123
217	C	0.041044	0.772935	0.384668
218	C	0.070348	0.787586	0.343331
219	N	0.04248	0.773653	0.636942
220	C	0.488036	0.74643	0.634894
221	H	0.46933	0.737078	0.603984
222	C	0.066778	0.785804	0.429939
223	H	0.036869	0.770847	0.457066
224	H	0.091782	0.829207	0.433734
225	H	0.091782	0.767403	0.433734
226	C	0.208504	0.89769	0.674464
227	N	0.153966	0.870186	0.674885
228	C	0.126463	0.815648	0.674477
229	N	0.153966	0.788613	0.674875
230	C	0.208505	0.815644	0.67445
231	N	0.235536	0.870182	0.674858
232	C	0.320479	0.621635	0.676475
233	N	0.375023	0.649127	0.676356
234	C	0.402517	0.703673	0.676465
235	N	0.375023	0.730724	0.676353
236	C	0.320479	0.703673	0.676472
237	N	0.293427	0.649127	0.676363
238	C	0.292432	0.731719	0.009096
239	N	0.278508	0.745628	0.71545
240	C	0.251203	0.772935	0.717985
241	C	0.236564	0.78759	0.676642
242	N	0.250512	0.773661	0.970257
243	C	0.277733	0.746438	0.968221
244	H	0.287094	0.737086	0.937312
245	C	0.238331	0.785804	0.763253
246	H	0.25328	0.770851	0.790384
247	H	0.194926	0.767407	0.767042
248	H	0.256731	0.829207	0.767045
249	C	0.292433	0.565544	0.009103
250	N	0.278505	0.537711	0.715457
251	C	0.251201	0.983099	0.717995
252	C	0.236568	0.953801	0.676655
253	N	0.250517	0.981675	0.970267
254	C	0.27774	0.536121	0.968228
255	H	0.287103	0.55483	0.937322
256	C	0.238327	0.957358	0.763263
257	H	0.253274	0.987262	0.790394
258	H	0.256731	0.932359	0.767059
259	H	0.194922	0.932351	0.767052
260	C	0.458609	0.731719	0.009099
261	N	0.486434	0.745632	0.715457
262	C	0.041044	0.772935	0.718002
263	C	0.070348	0.787586	0.676665
264	N	0.04248	0.773653	0.970274
265	C	0.488036	0.74643	0.968228
266	H	0.46933	0.737078	0.937319
267	C	0.066778	0.785804	0.763273
268	H	0.036869	0.770847	0.790401
269	H	0.091782	0.829207	0.767069
270	H	0.091782	0.767403	0.767065
271	C	0.708505	0.397689	0.007798
272	N	0.653966	0.370185	0.008219
273	C	0.626465	0.315647	0.007812
274	N	0.653967	0.288613	0.008206
275	C	0.708505	0.315644	0.007785
276	N	0.735539	0.370183	0.008189
277	C	0.820478	0.121636	0.009809
278	N	0.875025	0.149129	0.009689
279	C	0.902516	0.203673	0.009799
280	N	0.875022	0.230724	0.009685
281	C	0.820481	0.203672	0.009805
282	N	0.793428	0.149128	0.009696
283	C	0.792431	0.231718	0.34243
284	N	0.778507	0.245628	0.048783
285	C	0.751204	0.272935	0.051318
286	C	0.736566	0.287591	0.009976
287	N	0.750514	0.273661	0.303591
288	C	0.777735	0.246439	0.301554
289	H	0.787096	0.237088	0.270647
290	C	0.738332	0.285804	0.096586
291	H	0.75328	0.270851	0.123717
292	H	0.694927	0.267407	0.100375
293	H	0.756732	0.32921	0.100378
294	C	0.792432	0.065543	0.342437
295	N	0.778506	0.037712	0.048791
296	C	0.7512	0.4831	0.051329
297	C	0.736568	0.453802	0.009988
298	N	0.750521	0.481679	0.303602
299	C	0.777742	0.036122	0.301562
300	H	0.787105	0.054833	0.270654
301	C	0.738329	0.457359	0.096597
302	H	0.753274	0.487263	0.123727
303	H	0.756733	0.432359	0.100392
304	H	0.694922	0.432351	0.100385
305	C	0.958609	0.231719	0.342434
306	N	0.986433	0.245631	0.04879
307	C	0.541046	0.272937	0.051336
308	C	0.570348	0.287587	0.009998
309	N	0.542482	0.273653	0.303609
310	C	0.988036	0.246433	0.301562
311	H	0.969333	0.23708	0.270652
312	C	0.566779	0.285803	0.096606
313	H	0.53687	0.270849	0.123733
314	H	0.591784	0.329207	0.100401
315	H	0.591781	0.267403	0.100401
316	C	0.708505	0.397689	0.341129
317	N	0.653966	0.370185	0.341554
318	C	0.626465	0.315647	0.341146
319	N	0.653967	0.288613	0.34154
320	C	0.708505	0.315644	0.341119
321	N	0.735539	0.370183	0.341523
322	C	0.820478	0.121636	0.343144
323	N	0.875025	0.149129	0.343022
324	C	0.902516	0.203673	0.343134
325	N	0.875022	0.230724	0.343018
326	C	0.820481	0.203672	0.343137
327	N	0.793428	0.149128	0.343028
328	C	0.792431	0.231718	0.675765
329	N	0.778507	0.245628	0.382116
330	C	0.751204	0.272935	0.384651
331	C	0.736566	0.287591	0.34331
332	N	0.750514	0.273661	0.636925
333	C	0.777735	0.246439	0.634887
334	H	0.787096	0.237088	0.603981
335	C	0.738332	0.285804	0.429919
336	H	0.75328	0.270851	0.457049
337	H	0.694927	0.267407	0.433707
338	H	0.756732	0.32921	0.43371
339	C	0.792432	0.065543	0.675772
340	N	0.778506	0.037712	0.382123
341	C	0.7512	0.4831	0.384661
342	C	0.736568	0.453802	0.343321
343	N	0.750521	0.481679	0.636936
344	C	0.777742	0.036122	0.634894
345	H	0.787105	0.054833	0.603988
346	C	0.738329	0.457359	0.429929
347	H	0.753274	0.487263	0.45706
348	H	0.756733	0.432359	0.433724
349	H	0.694922	0.432351	0.433717
350	C	0.958609	0.231719	0.675768
351	N	0.986433	0.245631	0.382123
352	C	0.541046	0.272937	0.384668
353	C	0.570348	0.287587	0.343331
354	N	0.542482	0.273653	0.636942
355	C	0.988036	0.246433	0.634894
356	H	0.969333	0.23708	0.603984
357	C	0.566779	0.285803	0.429939
358	H	0.53687	0.270849	0.457066
359	H	0.591784	0.329207	0.433734
360	H	0.591781	0.267403	0.433734
361	C	0.708505	0.397689	0.674464
362	N	0.653966	0.370185	0.674885
363	C	0.626465	0.315647	0.674477
364	N	0.653967	0.288613	0.674875
365	C	0.708505	0.315644	0.67445
366	N	0.735539	0.370183	0.674858
367	C	0.820478	0.121636	0.676475
368	N	0.875025	0.149129	0.676356
369	C	0.902516	0.203673	0.676465
370	N	0.875022	0.230724	0.676353
371	C	0.820481	0.203672	0.676472
372	N	0.793428	0.149128	0.676363
373	C	0.792431	0.231718	0.009096
374	N	0.778507	0.245628	0.71545
375	C	0.751204	0.272935	0.717985
376	C	0.736566	0.287591	0.676642
377	N	0.750514	0.273661	0.970257
378	C	0.777735	0.246439	0.968221
379	H	0.787096	0.237088	0.937312
380	C	0.738332	0.285804	0.763253
381	H	0.75328	0.270851	0.790384
382	H	0.694927	0.267407	0.767042
383	H	0.756732	0.32921	0.767045
384	C	0.792432	0.065543	0.009103
385	N	0.778506	0.037712	0.715457
386	C	0.7512	0.4831	0.717995
387	C	0.736568	0.453802	0.676655
388	N	0.750521	0.481679	0.970267
389	C	0.777742	0.036122	0.968228
390	H	0.787105	0.054833	0.937322
391	C	0.738329	0.457359	0.763263
392	H	0.753274	0.487263	0.790394
393	H	0.756733	0.432359	0.767059
394	H	0.694922	0.432351	0.767052
395	C	0.958609	0.231719	0.009099
396	N	0.986433	0.245631	0.715457
397	C	0.541046	0.272937	0.718002
398	C	0.570348	0.287587	0.676665
399	N	0.542482	0.273653	0.970274
400	C	0.988036	0.246433	0.968228
401	H	0.969333	0.23708	0.937319
402	C	0.566779	0.285803	0.763273
403	H	0.53687	0.270849	0.790401
404	H	0.591784	0.329207	0.767069
405	H	0.591781	0.267403	0.767065
406	C	0.708505	0.89769	0.007798
407	N	0.653967	0.870186	0.008219
408	C	0.626463	0.815648	0.007812
409	N	0.653967	0.788613	0.008206
410	C	0.708505	0.815644	0.007785
411	N	0.735537	0.870182	0.008189
412	C	0.820478	0.621635	0.009809
413	N	0.875025	0.649127	0.009689
414	C	0.902517	0.703673	0.0098
415	N	0.875022	0.730724	0.009685
416	C	0.820481	0.703673	0.009805
417	N	0.793427	0.649127	0.009696
418	C	0.792431	0.731719	0.34243
419	N	0.778507	0.745628	0.048783
420	C	0.751204	0.772935	0.051318
421	C	0.736564	0.78759	0.009976
422	N	0.750514	0.773661	0.303591
423	C	0.777734	0.746438	0.301554
424	H	0.787095	0.737086	0.270647
425	C	0.738331	0.785804	0.096586
426	H	0.75328	0.770851	0.123717
427	H	0.694926	0.767407	0.100375
428	H	0.756732	0.829207	0.100378
429	C	0.792432	0.565544	0.342437
430	N	0.778505	0.537711	0.04879
431	C	0.751201	0.983099	0.051329
432	C	0.736568	0.953801	0.009988
433	N	0.750518	0.981675	0.303602
434	C	0.777738	0.536121	0.301562
435	H	0.787103	0.55483	0.270654
436	C	0.738327	0.957358	0.096597
437	H	0.753274	0.987262	0.123727
438	H	0.756731	0.932359	0.100392
439	H	0.694923	0.932351	0.100385
440	C	0.958609	0.731719	0.342434
441	N	0.986433	0.745632	0.04879
442	C	0.541044	0.772935	0.051336
443	C	0.570348	0.787586	0.009998
444	N	0.54248	0.773653	0.303609
445	C	0.988035	0.74643	0.301562
446	H	0.969332	0.737078	0.270652
447	C	0.566778	0.785804	0.096606
448	H	0.536869	0.770847	0.123733
449	H	0.591782	0.829207	0.100401
450	H	0.591783	0.767403	0.100401
451	C	0.708505	0.89769	0.341129
452	N	0.653967	0.870186	0.341554
453	C	0.626463	0.815648	0.341146
454	N	0.653967	0.788613	0.34154
455	C	0.708505	0.815644	0.341119
456	N	0.735537	0.870182	0.341523
457	C	0.820478	0.621635	0.343144
458	N	0.875025	0.649127	0.343022
459	C	0.902517	0.703673	0.343134
460	N	0.875022	0.730724	0.343018
461	C	0.820481	0.703673	0.343137
462	N	0.793427	0.649127	0.343028
463	C	0.792431	0.731719	0.675765
464	N	0.778507	0.745628	0.382116
465	C	0.751204	0.772935	0.384651
466	C	0.736564	0.78759	0.34331
467	N	0.750514	0.773661	0.636925
468	C	0.777734	0.746438	0.634887
469	H	0.787095	0.737086	0.603981
470	C	0.738331	0.785804	0.429919
471	H	0.75328	0.770851	0.457049
472	H	0.694926	0.767407	0.433707
473	H	0.756732	0.829207	0.43371
474	C	0.792432	0.565544	0.675772
475	N	0.778505	0.537711	0.382123
476	C	0.751201	0.983099	0.384661
477	C	0.736568	0.953801	0.343321
478	N	0.750518	0.981675	0.636936
479	C	0.777738	0.536121	0.634894
480	H	0.787103	0.55483	0.603988
481	C	0.738327	0.957358	0.429929
482	H	0.753274	0.987262	0.45706
483	H	0.756731	0.932359	0.433724
484	H	0.694923	0.932351	0.433717
485	C	0.958609	0.731719	0.675768
486	N	0.986433	0.745632	0.382123
487	C	0.541044	0.772935	0.384668
488	C	0.570348	0.787586	0.343331
489	N	0.54248	0.773653	0.636942
490	C	0.988035	0.74643	0.634894
491	H	0.969332	0.737078	0.603984
492	C	0.566778	0.785804	0.429939
493	H	0.536869	0.770847	0.457066
494	H	0.591782	0.829207	0.433734
495	H	0.591783	0.767403	0.433734
496	C	0.708505	0.89769	0.674464
497	N	0.653967	0.870186	0.674885
498	C	0.626463	0.815648	0.674477
499	N	0.653967	0.788613	0.674875
500	C	0.708505	0.815644	0.67445
501	N	0.735537	0.870182	0.674858
502	C	0.820478	0.621635	0.676475
503	N	0.875025	0.649127	0.676356
504	C	0.902517	0.703673	0.676465
505	N	0.875022	0.730724	0.676353
506	C	0.820481	0.703673	0.676472
507	N	0.793427	0.649127	0.676363
508	C	0.792431	0.731719	0.009096
509	N	0.778507	0.745628	0.71545
510	C	0.751204	0.772935	0.717985
511	C	0.736564	0.78759	0.676642
512	N	0.750514	0.773661	0.970257
513	C	0.777734	0.746438	0.968221
514	H	0.787095	0.737086	0.937312
515	C	0.738331	0.785804	0.763253
516	H	0.75328	0.770851	0.790384
517	H	0.694926	0.767407	0.767042
518	H	0.756732	0.829207	0.767045
519	C	0.792432	0.565544	0.009103
520	N	0.778505	0.537711	0.715457
521	C	0.751201	0.983099	0.717995
522	C	0.736568	0.953801	0.676655
523	N	0.750518	0.981675	0.970267
524	C	0.777738	0.536121	0.968228
525	H	0.787103	0.55483	0.937322
526	C	0.738327	0.957358	0.763263
527	H	0.753274	0.987262	0.790394
528	H	0.756731	0.932359	0.767059
529	H	0.694923	0.932351	0.767052
530	C	0.958609	0.731719	0.009099
531	N	0.986433	0.745632	0.715457
532	C	0.541044	0.772935	0.718002
533	C	0.570348	0.787586	0.676665
534	N	0.54248	0.773653	0.970274
535	C	0.988035	0.74643	0.968228
536	H	0.969332	0.737078	0.937319
537	C	0.566778	0.785804	0.763273
538	H	0.536869	0.770847	0.790401
539	H	0.591782	0.829207	0.767069
540	H	0.591783	0.767403	0.767065
