data_C216H108N180_2018-02-15_10:38:29
#******************************************
#
# CIF file created by Zeo++
# Zeo++ is an open source package to
# analyze microporous materials
#
#*******************************************

_cell_length_a		28.7595   
_cell_length_b		28.7595   
_cell_length_c		29.394   
_cell_angle_alpha		90   
_cell_angle_beta		90   
_cell_angle_gamma		120   

_symmetry_space_group_name_H-M		'P1'
_symmetry_Int_Tables_number		1
_symmetry_cell_setting		Monoclinic

loop_
_symmetry_equiv_pos_as_xyz
'+x,+y,+z'

loop_
_atom_site_label
_atom_site_type_symbol
_atom_site_fract_x
_atom_site_fract_y
_atom_site_fract_z
1	C	0.209513	0.398411	0.009178
2	N	0.154949	0.370822	0.009957
3	C	0.127355	0.316257	0.009165
4	N	0.15495	0.289285	0.009937
5	C	0.209517	0.316255	0.009161
6	N	0.236491	0.370822	0.009951
7	C	0.321414	0.122214	0.009001
8	N	0.375983	0.149778	0.00957
9	C	0.403554	0.204349	0.008988
10	N	0.375987	0.231353	0.009576
11	C	0.321418	0.204352	0.009008
12	N	0.29441	0.149781	0.00959
13	C	0.293386	0.23238	0.011925
14	C	0.279854	0.245914	0.05404
15	C	0.251431	0.274345	0.055413
16	C	0.237537	0.288248	0.013175
17	N	0.252119	0.273659	0.307429
18	N	0.278393	0.247379	0.306736
19	N	0.238637	0.287137	0.096267
20	H	0.248651	0.277118	0.124703
21	H	0.219172	0.306607	0.098435
22	H	0.290689	0.235076	0.083662
23	C	0.293381	0.066155	0.011925
24	C	0.279844	0.039097	0.054044
25	C	0.251428	0.482244	0.055425
26	C	0.237547	0.45444	0.01319
27	N	0.252131	0.483601	0.307441
28	N	0.278401	0.036156	0.30674
29	N	0.238633	0.456664	0.096281
30	H	0.248641	0.476699	0.124716
31	H	0.219176	0.417727	0.098454
32	H	0.290674	0.060776	0.083663
33	C	0.459613	0.232386	0.01191
34	C	0.486671	0.245922	0.054028
35	C	0.043525	0.274345	0.055409
36	C	0.071328	0.288232	0.013174
37	N	0.042164	0.273642	0.307424
38	N	0.489612	0.247368	0.306724
39	N	0.069105	0.287139	0.096265
40	H	0.049067	0.277125	0.1247
41	H	0.10804	0.306597	0.098438
42	H	0.464993	0.235089	0.083648
43	C	0.209513	0.398411	0.342512
44	N	0.154949	0.370822	0.343291
45	C	0.127355	0.316257	0.342498
46	N	0.15495	0.289285	0.343267
47	C	0.209517	0.316255	0.342492
48	N	0.236491	0.370822	0.343281
49	C	0.321414	0.122214	0.342335
50	N	0.375983	0.149778	0.3429
51	C	0.403554	0.204349	0.342321
52	N	0.375987	0.231353	0.34291
53	C	0.321418	0.204352	0.342342
54	N	0.29441	0.149781	0.342924
55	C	0.293386	0.23238	0.345257
56	C	0.279854	0.245914	0.387371
57	C	0.251431	0.274345	0.388746
58	C	0.237537	0.288248	0.346509
59	N	0.252119	0.273659	0.640763
60	N	0.278393	0.247379	0.640069
61	N	0.238637	0.287137	0.429601
62	H	0.248651	0.277118	0.458035
63	H	0.219172	0.306607	0.431768
64	H	0.290689	0.235076	0.416996
65	C	0.293381	0.066155	0.345257
66	C	0.279844	0.039097	0.387378
67	C	0.251428	0.482244	0.388759
68	C	0.237547	0.45444	0.346523
69	N	0.252131	0.483601	0.640773
70	N	0.278401	0.036156	0.640073
71	N	0.238633	0.456664	0.429615
72	H	0.248641	0.476699	0.458049
73	H	0.219176	0.417727	0.431789
74	H	0.290674	0.060776	0.416996
75	C	0.459613	0.232386	0.345244
76	C	0.486671	0.245922	0.387361
77	C	0.043525	0.274345	0.388742
78	C	0.071328	0.288232	0.346506
79	N	0.042164	0.273642	0.640756
80	N	0.489612	0.247368	0.640059
81	N	0.069105	0.287139	0.429598
82	H	0.049067	0.277125	0.458032
83	H	0.10804	0.306597	0.431772
84	H	0.464993	0.235089	0.416979
85	C	0.209513	0.398411	0.675845
86	N	0.154949	0.370822	0.676624
87	C	0.127355	0.316257	0.675832
88	N	0.15495	0.289285	0.6766
89	C	0.209517	0.316255	0.675828
90	N	0.236491	0.370822	0.676617
91	C	0.321414	0.122214	0.675668
92	N	0.375983	0.149778	0.676236
93	C	0.403554	0.204349	0.675655
94	N	0.375987	0.231353	0.676243
95	C	0.321418	0.204352	0.675675
96	N	0.29441	0.149781	0.676257
97	C	0.293386	0.23238	0.678591
98	C	0.279854	0.245914	0.720708
99	C	0.251431	0.274345	0.722079
100	C	0.237537	0.288248	0.679843
101	N	0.252119	0.273659	0.974096
102	N	0.278393	0.247379	0.973402
103	N	0.238637	0.287137	0.762934
104	H	0.248651	0.277118	0.791369
105	H	0.219172	0.306607	0.765101
106	H	0.290689	0.235076	0.75033
107	C	0.293381	0.066155	0.678594
108	C	0.279844	0.039097	0.720711
109	C	0.251428	0.482244	0.722093
110	C	0.237547	0.45444	0.679856
111	N	0.252131	0.483601	0.974107
112	N	0.278401	0.036156	0.973406
113	N	0.238633	0.456664	0.762948
114	H	0.248641	0.476699	0.791382
115	H	0.219176	0.417727	0.765122
116	H	0.290674	0.060776	0.75033
117	C	0.459613	0.232386	0.678577
118	C	0.486671	0.245922	0.720694
119	C	0.043525	0.274345	0.722076
120	C	0.071328	0.288232	0.679839
121	N	0.042164	0.273642	0.974093
122	N	0.489612	0.247368	0.973392
123	N	0.069105	0.287139	0.762931
124	H	0.049067	0.277125	0.791365
125	H	0.10804	0.306597	0.765105
126	H	0.464993	0.235089	0.750316
127	C	0.209513	0.898409	0.009178
128	N	0.15495	0.870822	0.009957
129	C	0.127357	0.816258	0.009165
130	N	0.154951	0.789285	0.009937
131	C	0.209517	0.816254	0.009161
132	N	0.236491	0.870822	0.009951
133	C	0.321413	0.622212	0.009001
134	N	0.375985	0.649779	0.00957
135	C	0.403554	0.704347	0.008988
136	N	0.375988	0.731352	0.009576
137	C	0.321418	0.704351	0.009008
138	N	0.29441	0.649779	0.00959
139	C	0.293386	0.73238	0.011925
140	C	0.279855	0.745915	0.05404
141	C	0.251432	0.774345	0.055413
142	C	0.237539	0.788249	0.013175
143	N	0.252119	0.773658	0.307429
144	N	0.278395	0.74738	0.306736
145	N	0.238638	0.787137	0.096267
146	H	0.24865	0.777115	0.124703
147	H	0.219172	0.806606	0.098435
148	H	0.290689	0.735074	0.083661
149	C	0.293381	0.566154	0.011925
150	C	0.279845	0.539097	0.054044
151	C	0.251428	0.982243	0.055425
152	C	0.237547	0.954439	0.01319
153	N	0.252134	0.983604	0.307441
154	N	0.278403	0.536158	0.30674
155	N	0.238633	0.956663	0.096281
156	H	0.248643	0.976702	0.124716
157	H	0.219178	0.917729	0.098454
158	H	0.290674	0.560774	0.083663
159	C	0.459613	0.732384	0.01191
160	C	0.486673	0.745923	0.054028
161	C	0.043526	0.774345	0.055409
162	C	0.071329	0.788233	0.013174
163	N	0.042166	0.773642	0.307424
164	N	0.489611	0.747368	0.306724
165	N	0.069105	0.787137	0.096265
166	H	0.049068	0.777123	0.1247
167	H	0.108041	0.806598	0.098438
168	H	0.464994	0.73509	0.083648
169	C	0.209513	0.898409	0.342512
170	N	0.15495	0.870822	0.343291
171	C	0.127357	0.816258	0.342498
172	N	0.154951	0.789285	0.343267
173	C	0.209517	0.816254	0.342492
174	N	0.236491	0.870822	0.343281
175	C	0.321413	0.622212	0.342335
176	N	0.375985	0.649779	0.3429
177	C	0.403554	0.704347	0.342321
178	N	0.375988	0.731352	0.34291
179	C	0.321418	0.704351	0.342338
180	N	0.29441	0.649779	0.342924
181	C	0.293386	0.73238	0.345257
182	C	0.279855	0.745915	0.387371
183	C	0.251432	0.774345	0.388746
184	C	0.237539	0.788249	0.346509
185	N	0.252119	0.773658	0.640763
186	N	0.278395	0.74738	0.640069
187	N	0.238638	0.787137	0.429601
188	H	0.24865	0.777115	0.458035
189	H	0.219172	0.806606	0.431768
190	H	0.290689	0.735074	0.416996
191	C	0.293381	0.566154	0.345257
192	C	0.279845	0.539097	0.387378
193	C	0.251428	0.982243	0.388759
194	C	0.237547	0.954439	0.346523
195	N	0.252134	0.983604	0.640773
196	N	0.278403	0.536158	0.640073
197	N	0.238633	0.956663	0.429615
198	H	0.248643	0.976702	0.458049
199	H	0.219178	0.917729	0.431789
200	H	0.290674	0.560774	0.416996
201	C	0.459613	0.732384	0.345244
202	C	0.486673	0.745923	0.387361
203	C	0.043526	0.774345	0.388742
204	C	0.071329	0.788233	0.346506
205	N	0.042166	0.773642	0.640756
206	N	0.489611	0.747368	0.640059
207	N	0.069105	0.787137	0.429598
208	H	0.049068	0.777123	0.458032
209	H	0.108041	0.806598	0.431772
210	H	0.464994	0.73509	0.416979
211	C	0.209513	0.898409	0.675845
212	N	0.15495	0.870822	0.676624
213	C	0.127357	0.816258	0.675832
214	N	0.154951	0.789285	0.6766
215	C	0.209517	0.816254	0.675828
216	N	0.236491	0.870822	0.676617
217	C	0.321413	0.622212	0.675668
218	N	0.375985	0.649779	0.676236
219	C	0.403554	0.704347	0.675655
220	N	0.375988	0.731352	0.676243
221	C	0.321418	0.704351	0.675675
222	N	0.29441	0.649779	0.676257
223	C	0.293386	0.73238	0.678591
224	C	0.279855	0.745915	0.720708
225	C	0.251432	0.774345	0.722079
226	C	0.237539	0.788249	0.679843
227	N	0.252119	0.773658	0.974096
228	N	0.278395	0.74738	0.973402
229	N	0.238638	0.787137	0.762934
230	H	0.24865	0.777115	0.791369
231	H	0.219172	0.806606	0.765101
232	H	0.290689	0.735074	0.75033
233	C	0.293381	0.566154	0.678594
234	C	0.279845	0.539097	0.720711
235	C	0.251428	0.982243	0.722093
236	C	0.237547	0.954439	0.679856
237	N	0.252134	0.983604	0.974107
238	N	0.278403	0.536158	0.973406
239	N	0.238633	0.956663	0.762948
240	H	0.248643	0.976702	0.791382
241	H	0.219178	0.917729	0.765122
242	H	0.290674	0.560774	0.75033
243	C	0.459613	0.732384	0.678577
244	C	0.486673	0.745923	0.720694
245	C	0.043526	0.774345	0.722076
246	C	0.071329	0.788233	0.679839
247	N	0.042166	0.773642	0.974093
248	N	0.489611	0.747368	0.973392
249	N	0.069105	0.787137	0.762931
250	H	0.049068	0.777123	0.791365
251	H	0.108041	0.806598	0.765105
252	H	0.464994	0.73509	0.750316
253	C	0.709514	0.398411	0.009178
254	N	0.65495	0.370822	0.009957
255	C	0.627355	0.316257	0.009165
256	N	0.654951	0.289285	0.009937
257	C	0.709518	0.316255	0.009161
258	N	0.736492	0.370822	0.009951
259	C	0.821413	0.122214	0.009001
260	N	0.875985	0.149778	0.00957
261	C	0.903555	0.204349	0.008988
262	N	0.875989	0.231353	0.009576
263	C	0.821417	0.204352	0.009008
264	N	0.794409	0.149781	0.00959
265	C	0.793386	0.23238	0.011925
266	C	0.779853	0.245914	0.05404
267	C	0.751429	0.274345	0.055413
268	C	0.737539	0.288248	0.013175
269	N	0.752119	0.273659	0.307429
270	N	0.778392	0.247379	0.306736
271	N	0.738638	0.287137	0.096267
272	H	0.74865	0.277118	0.124703
273	H	0.719173	0.306607	0.098435
274	H	0.79069	0.235076	0.083662
275	C	0.793379	0.066155	0.011925
276	C	0.779843	0.039097	0.054044
277	C	0.751427	0.482244	0.055425
278	C	0.737546	0.45444	0.01319
279	N	0.75213	0.483601	0.307441
280	N	0.778401	0.036156	0.30674
281	N	0.738634	0.456664	0.096281
282	H	0.748641	0.476699	0.124716
283	H	0.719176	0.417727	0.098454
284	H	0.790676	0.060776	0.083663
285	C	0.959612	0.232386	0.01191
286	C	0.986672	0.245922	0.054028
287	C	0.543526	0.274345	0.055409
288	C	0.571328	0.288232	0.013174
289	N	0.542166	0.273642	0.307424
290	N	0.98961	0.247368	0.306724
291	N	0.569106	0.287139	0.096265
292	H	0.549067	0.277125	0.1247
293	H	0.608039	0.306597	0.098438
294	H	0.964993	0.235089	0.083648
295	C	0.709514	0.398411	0.342512
296	N	0.65495	0.370822	0.343291
297	C	0.627355	0.316257	0.342498
298	N	0.654951	0.289285	0.343267
299	C	0.709518	0.316255	0.342492
300	N	0.736492	0.370822	0.343281
301	C	0.821413	0.122214	0.342335
302	N	0.875985	0.149778	0.3429
303	C	0.903555	0.204349	0.342321
304	N	0.875989	0.231353	0.34291
305	C	0.821417	0.204352	0.342342
306	N	0.794409	0.149781	0.342924
307	C	0.793386	0.23238	0.345257
308	C	0.779853	0.245914	0.387371
309	C	0.751429	0.274345	0.388746
310	C	0.737539	0.288248	0.346509
311	N	0.752119	0.273659	0.640763
312	N	0.778392	0.247379	0.640069
313	N	0.738638	0.287137	0.429601
314	H	0.74865	0.277118	0.458035
315	H	0.719173	0.306607	0.431768
316	H	0.79069	0.235076	0.416996
317	C	0.793379	0.066155	0.345257
318	C	0.779843	0.039097	0.387378
319	C	0.751427	0.482244	0.388759
320	C	0.737546	0.45444	0.346523
321	N	0.75213	0.483601	0.640773
322	N	0.778401	0.036156	0.640073
323	N	0.738634	0.456664	0.429615
324	H	0.748641	0.476699	0.458049
325	H	0.719176	0.417727	0.431789
326	H	0.790676	0.060776	0.416996
327	C	0.959612	0.232386	0.345244
328	C	0.986672	0.245922	0.387361
329	C	0.543526	0.274345	0.388742
330	C	0.571328	0.288232	0.346506
331	N	0.542166	0.273642	0.640756
332	N	0.98961	0.247368	0.640059
333	N	0.569106	0.287139	0.429598
334	H	0.549067	0.277125	0.458032
335	H	0.608039	0.306597	0.431772
336	H	0.964993	0.235089	0.416979
337	C	0.709514	0.398411	0.675845
338	N	0.65495	0.370822	0.676624
339	C	0.627355	0.316257	0.675832
340	N	0.654951	0.289285	0.6766
341	C	0.709518	0.316255	0.675828
342	N	0.736492	0.370822	0.676617
343	C	0.821413	0.122214	0.675668
344	N	0.875985	0.149778	0.676236
345	C	0.903555	0.204349	0.675655
346	N	0.875989	0.231353	0.676243
347	C	0.821417	0.204352	0.675675
348	N	0.794409	0.149781	0.676257
349	C	0.793386	0.23238	0.678591
350	C	0.779853	0.245914	0.720708
351	C	0.751429	0.274345	0.722079
352	C	0.737539	0.288248	0.679843
353	N	0.752119	0.273659	0.974096
354	N	0.778392	0.247379	0.973402
355	N	0.738638	0.287137	0.762934
356	H	0.74865	0.277118	0.791369
357	H	0.719173	0.306607	0.765101
358	H	0.79069	0.235076	0.75033
359	C	0.793379	0.066155	0.678594
360	C	0.779843	0.039097	0.720711
361	C	0.751427	0.482244	0.722093
362	C	0.737546	0.45444	0.679856
363	N	0.75213	0.483601	0.974107
364	N	0.778401	0.036156	0.973406
365	N	0.738634	0.456664	0.762948
366	H	0.748641	0.476699	0.791382
367	H	0.719176	0.417727	0.765122
368	H	0.790676	0.060776	0.75033
369	C	0.959612	0.232386	0.678577
370	C	0.986672	0.245922	0.720694
371	C	0.543526	0.274345	0.722076
372	C	0.571328	0.288232	0.679839
373	N	0.542166	0.273642	0.974093
374	N	0.98961	0.247368	0.973392
375	N	0.569106	0.287139	0.762931
376	H	0.549067	0.277125	0.791365
377	H	0.608039	0.306597	0.765105
378	H	0.964993	0.235089	0.750316
379	C	0.709513	0.898409	0.009178
380	N	0.65495	0.870822	0.009957
381	C	0.627357	0.816258	0.009165
382	N	0.654951	0.789285	0.009937
383	C	0.709517	0.816254	0.009161
384	N	0.736491	0.870822	0.009951
385	C	0.821415	0.622212	0.009001
386	N	0.875985	0.649779	0.00957
387	C	0.903554	0.704347	0.008988
388	N	0.875989	0.731352	0.009576
389	C	0.821417	0.704351	0.009008
390	N	0.794409	0.649779	0.00959
391	C	0.793386	0.73238	0.011925
392	C	0.779854	0.745915	0.05404
393	C	0.751433	0.774345	0.055413
394	C	0.737539	0.788249	0.013175
395	N	0.752119	0.773658	0.307429
396	N	0.778396	0.74738	0.306736
397	N	0.738638	0.787137	0.096267
398	H	0.748649	0.777115	0.124703
399	H	0.719172	0.806606	0.098435
400	H	0.790689	0.735074	0.083661
401	C	0.793382	0.566154	0.011925
402	C	0.779847	0.539097	0.054044
403	C	0.751428	0.982243	0.055425
404	C	0.737547	0.954439	0.01319
405	N	0.752134	0.983604	0.307441
406	N	0.778402	0.536158	0.30674
407	N	0.738633	0.956663	0.096281
408	H	0.748643	0.976702	0.124716
409	H	0.719178	0.917729	0.098454
410	H	0.790675	0.560774	0.083663
411	C	0.959615	0.732384	0.01191
412	C	0.986673	0.745923	0.054028
413	C	0.543526	0.774345	0.055409
414	C	0.571329	0.788233	0.013174
415	N	0.542166	0.773642	0.307424
416	N	0.989611	0.747368	0.306724
417	N	0.569105	0.787137	0.096265
418	H	0.549068	0.777123	0.1247
419	H	0.608041	0.806598	0.098438
420	H	0.964994	0.73509	0.083648
421	C	0.709513	0.898409	0.342512
422	N	0.65495	0.870822	0.343291
423	C	0.627357	0.816258	0.342498
424	N	0.654951	0.789285	0.343267
425	C	0.709517	0.816254	0.342492
426	N	0.736491	0.870822	0.343281
427	C	0.821415	0.622212	0.342335
428	N	0.875985	0.649779	0.3429
429	C	0.903554	0.704347	0.342321
430	N	0.875989	0.731352	0.34291
431	C	0.821417	0.704351	0.342338
432	N	0.794409	0.649779	0.342924
433	C	0.793386	0.73238	0.345257
434	C	0.779854	0.745915	0.387371
435	C	0.751433	0.774345	0.388746
436	C	0.737539	0.788249	0.346509
437	N	0.752119	0.773658	0.640763
438	N	0.778396	0.74738	0.640069
439	N	0.738638	0.787137	0.429601
440	H	0.748649	0.777115	0.458035
441	H	0.719172	0.806606	0.431768
442	H	0.790689	0.735074	0.416996
443	C	0.793382	0.566154	0.345257
444	C	0.779847	0.539097	0.387378
445	C	0.751428	0.982243	0.388759
446	C	0.737547	0.954439	0.346523
447	N	0.752134	0.983604	0.640773
448	N	0.778402	0.536158	0.640073
449	N	0.738633	0.956663	0.429615
450	H	0.748643	0.976702	0.458049
451	H	0.719178	0.917729	0.431789
452	H	0.790675	0.560774	0.416996
453	C	0.959615	0.732384	0.345244
454	C	0.986673	0.745923	0.387361
455	C	0.543526	0.774345	0.388742
456	C	0.571329	0.788233	0.346506
457	N	0.542166	0.773642	0.640756
458	N	0.989611	0.747368	0.640059
459	N	0.569105	0.787137	0.429598
460	H	0.549068	0.777123	0.458032
461	H	0.608041	0.806598	0.431772
462	H	0.964994	0.73509	0.416979
463	C	0.709513	0.898409	0.675845
464	N	0.65495	0.870822	0.676624
465	C	0.627357	0.816258	0.675832
466	N	0.654951	0.789285	0.6766
467	C	0.709517	0.816254	0.675828
468	N	0.736491	0.870822	0.676617
469	C	0.821415	0.622212	0.675668
470	N	0.875985	0.649779	0.676236
471	C	0.903554	0.704347	0.675655
472	N	0.875989	0.731352	0.676243
473	C	0.821417	0.704351	0.675675
474	N	0.794409	0.649779	0.676257
475	C	0.793386	0.73238	0.678591
476	C	0.779854	0.745915	0.720708
477	C	0.751433	0.774345	0.722079
478	C	0.737539	0.788249	0.679843
479	N	0.752119	0.773658	0.974096
480	N	0.778396	0.74738	0.973402
481	N	0.738638	0.787137	0.762934
482	H	0.748649	0.777115	0.791369
483	H	0.719172	0.806606	0.765101
484	H	0.790689	0.735074	0.75033
485	C	0.793382	0.566154	0.678594
486	C	0.779847	0.539097	0.720711
487	C	0.751428	0.982243	0.722093
488	C	0.737547	0.954439	0.679856
489	N	0.752134	0.983604	0.974107
490	N	0.778402	0.536158	0.973406
491	N	0.738633	0.956663	0.762948
492	H	0.748643	0.976702	0.791382
493	H	0.719178	0.917729	0.765122
494	H	0.790675	0.560774	0.75033
495	C	0.959615	0.732384	0.678577
496	C	0.986673	0.745923	0.720694
497	C	0.543526	0.774345	0.722076
498	C	0.571329	0.788233	0.679839
499	N	0.542166	0.773642	0.974093
500	N	0.989611	0.747368	0.973392
501	N	0.569105	0.787137	0.762931
502	H	0.549068	0.777123	0.791365
503	H	0.608041	0.806598	0.765105
504	H	0.964994	0.73509	0.750316
