data_C378H216N54_2018-02-15_10:39:16
#******************************************
#
# CIF file created by Zeo++
# Zeo++ is an open source package to
# analyze microporous materials
#
#*******************************************

_cell_length_a		46.2633   
_cell_length_b		46.2633   
_cell_length_c		29.5896   
_cell_angle_alpha		90   
_cell_angle_beta		90   
_cell_angle_gamma		120   

_symmetry_space_group_name_H-M		'P1'
_symmetry_Int_Tables_number		1
_symmetry_cell_setting		Monoclinic

loop_
_symmetry_equiv_pos_as_xyz
'+x,+y,+z'

loop_
_atom_site_label
_atom_site_type_symbol
_atom_site_fract_x
_atom_site_fract_y
_atom_site_fract_z
1	C	0.099321	0.551364	0.008043
2	C	0.081432	0.54316	0.049134
3	C	0.046235	0.525518	0.04928
4	C	0.028267	0.515859	0.008016
5	N	0.04671	0.524405	0.302581
6	C	0.080627	0.54129	0.300981
7	H	0.092209	0.546559	0.270198
8	H	0.093931	0.549936	0.079306
9	H	0.034055	0.519985	0.07965
10	C	0.099321	0.551364	0.341376
11	C	0.081432	0.54316	0.382468
12	C	0.046235	0.525518	0.382614
13	C	0.028267	0.515859	0.341349
14	N	0.04671	0.524405	0.635915
15	C	0.080627	0.54129	0.634313
16	H	0.092209	0.546559	0.603532
17	H	0.093931	0.549936	0.412641
18	H	0.034055	0.519985	0.412982
19	C	0.099321	0.551364	0.674709
20	C	0.081432	0.54316	0.715801
21	C	0.046235	0.525518	0.715947
22	C	0.028267	0.515859	0.674682
23	N	0.04671	0.524405	0.969248
24	C	0.080627	0.54129	0.96765
25	H	0.092209	0.546559	0.936865
26	H	0.093931	0.549936	0.745974
27	H	0.034055	0.519985	0.746319
28	C	0.187949	0.569082	0.006356
29	C	0.205177	0.604277	0.006707
30	C	0.187968	0.622261	0.007429
31	C	0.152695	0.604477	0.007971
32	C	0.134782	0.569092	0.007411
33	C	0.152673	0.551603	0.006572
34	H	0.14004	0.617386	0.008636
35	H	0.140005	0.526035	0.006362
36	H	0.230812	0.617089	0.006528
37	C	0.207277	0.553093	0.339234
38	C	0.220802	0.549696	0.29811
39	C	0.24806	0.544096	0.297931
40	C	0.26288	0.542753	0.339213
41	N	0.24879	0.545923	0.04466
42	C	0.221912	0.550315	0.046317
43	H	0.214609	0.554656	0.07699
44	H	0.21248	0.553685	0.267964
45	H	0.258233	0.543394	0.267541
46	C	0.262875	0.723523	0.007914
47	C	0.247944	0.707452	0.049198
48	C	0.220721	0.674573	0.049041
49	C	0.20732	0.657581	0.007942
50	C	0.222086	0.674877	0.300832
51	N	0.248923	0.706174	0.302475
52	H	0.214844	0.663211	0.270163
53	H	0.258	0.718441	0.079577
54	H	0.212209	0.662345	0.079208
55	C	0.187949	0.569082	0.339687
56	C	0.205177	0.604277	0.340041
57	C	0.187968	0.622261	0.340761
58	C	0.152695	0.604477	0.341305
59	C	0.134782	0.569092	0.340744
60	C	0.152673	0.551603	0.339903
61	H	0.14004	0.617386	0.341971
62	H	0.140005	0.526035	0.339697
63	H	0.230812	0.617089	0.339859
64	C	0.207277	0.553093	0.672567
65	C	0.220802	0.549696	0.631444
66	C	0.24806	0.544096	0.631265
67	C	0.26288	0.542753	0.672546
68	N	0.24879	0.545923	0.377994
69	C	0.221912	0.550315	0.37965
70	H	0.214609	0.554656	0.410323
71	H	0.21248	0.553685	0.601298
72	H	0.258233	0.543394	0.600876
73	C	0.262875	0.723523	0.341248
74	C	0.247944	0.707452	0.382533
75	C	0.220721	0.674573	0.382374
76	C	0.20732	0.657581	0.341275
77	C	0.222086	0.674877	0.634165
78	N	0.248923	0.706174	0.63581
79	H	0.214844	0.663211	0.603495
80	H	0.258	0.718441	0.412911
81	H	0.212209	0.662345	0.412543
82	C	0.187949	0.569082	0.673019
83	C	0.205177	0.604277	0.673374
84	C	0.187968	0.622261	0.674098
85	C	0.152695	0.604477	0.674638
86	C	0.134782	0.569092	0.674077
87	C	0.152673	0.551603	0.673239
88	H	0.14004	0.617386	0.675304
89	H	0.140005	0.526035	0.67303
90	H	0.230812	0.617089	0.673195
91	C	0.207277	0.553093	0.005899
92	C	0.220802	0.549696	0.964777
93	C	0.24806	0.544096	0.964598
94	C	0.26288	0.542753	0.005879
95	N	0.24879	0.545923	0.711327
96	C	0.221912	0.550315	0.712983
97	H	0.214609	0.554656	0.743659
98	H	0.21248	0.553685	0.934631
99	H	0.258233	0.543394	0.934209
100	C	0.262875	0.723523	0.674581
101	C	0.247944	0.707452	0.715866
102	C	0.220721	0.674573	0.71571
103	C	0.20732	0.657581	0.674608
104	C	0.222086	0.674877	0.967498
105	N	0.248923	0.706174	0.969143
106	H	0.214844	0.663211	0.936831
107	H	0.258	0.718441	0.746244
108	H	0.212209	0.662345	0.745876
109	C	0.293775	0.542738	0.007915
110	C	0.309866	0.543893	0.049186
111	N	0.311117	0.54611	0.30248
112	H	0.298959	0.543115	0.079577
113	C	0.309854	0.769323	0.297877
114	C	0.293765	0.75444	0.339169
115	N	0.311094	0.768455	0.044601
116	H	0.298871	0.759255	0.267499
117	C	0.293775	0.542738	0.341248
118	C	0.309866	0.543893	0.382519
119	N	0.311117	0.54611	0.635814
120	H	0.298959	0.543115	0.412911
121	C	0.309854	0.769323	0.631211
122	C	0.293765	0.75444	0.672502
123	N	0.311094	0.768455	0.377936
124	H	0.298871	0.759255	0.600832
125	C	0.293775	0.542738	0.674581
126	C	0.309866	0.543893	0.715855
127	N	0.311117	0.54611	0.969147
128	H	0.298959	0.543115	0.746244
129	C	0.309854	0.769323	0.964544
130	C	0.293765	0.75444	0.005835
131	N	0.311094	0.768455	0.711269
132	H	0.298871	0.759255	0.934165
133	C	0.448217	0.622321	0.006308
134	C	0.413021	0.60433	0.00666
135	C	0.395062	0.569137	0.007417
136	C	0.412872	0.551673	0.007977
137	C	0.448256	0.56917	0.00739
138	C	0.465719	0.604547	0.006515
139	H	0.39998	0.52611	0.008651
140	H	0.491289	0.617466	0.006285
141	H	0.400192	0.617134	0.00645
142	C	0.395001	0.829363	0.006315
143	C	0.41298	0.812146	0.006606
144	C	0.448171	0.829363	0.007358
145	C	0.46565	0.864638	0.00792
146	C	0.448167	0.882539	0.007401
147	C	0.412787	0.864638	0.006569
148	H	0.491215	0.8773	0.008564
149	H	0.399878	0.877297	0.006373
150	H	0.400165	0.78651	0.006369
151	C	0.832819	0.444723	0.006623
152	C	0.815591	0.409527	0.007311
153	C	0.832804	0.391544	0.007583
154	C	0.868079	0.409323	0.007304
155	C	0.885988	0.444705	0.006538
156	C	0.868092	0.462194	0.006075
157	H	0.880735	0.396411	0.007465
158	H	0.88076	0.48776	0.00546
159	H	0.789957	0.396718	0.007523
160	C	0.572639	0.391597	0.006636
161	C	0.607831	0.409555	0.00737
162	C	0.625823	0.444753	0.007639
163	C	0.608052	0.462254	0.00736
164	C	0.57267	0.44479	0.006545
165	C	0.555174	0.409405	0.006062
166	H	0.620971	0.487825	0.007544
167	H	0.52961	0.396514	0.00543
168	H	0.620635	0.396726	0.007618
169	C	0.625731	0.184521	0.006589
170	C	0.607742	0.201725	0.007338
171	C	0.572547	0.184493	0.007655
172	C	0.555072	0.149218	0.007397
173	C	0.572566	0.131331	0.006542
174	C	0.607949	0.149247	0.006001
175	H	0.529504	0.136545	0.007616
176	H	0.620864	0.136597	0.005335
177	H	0.62055	0.22736	0.007565
178	C	0.992501	0.497971	0.339254
179	C	0.974534	0.489485	0.297985
180	C	0.939336	0.471926	0.298133
181	C	0.921447	0.462424	0.339234
182	C	0.940142	0.471224	0.0463
183	N	0.974059	0.488244	0.044698
184	H	0.928562	0.465044	0.077089
185	H	0.986711	0.496006	0.26761
186	H	0.926835	0.466075	0.267957
187	C	0.466007	0.551459	0.008026
188	C	0.474198	0.541762	0.049118
189	C	0.491845	0.524213	0.049268
190	C	0.501526	0.515924	0.008006
191	N	0.492993	0.52583	0.30257
192	C	0.476104	0.54286	0.300967
193	C	0.519415	0.498048	0.339251
194	C	0.527868	0.488531	0.297983
195	C	0.545428	0.470892	0.298136
196	C	0.554959	0.462539	0.339237
197	C	0.546189	0.472467	0.0463
198	N	0.529169	0.489365	0.044694
199	H	0.552392	0.467091	0.077089
200	H	0.521328	0.494167	0.267608
201	H	0.551251	0.464213	0.267962
202	H	0.47084	0.549175	0.270183
203	H	0.467402	0.547468	0.079288
204	H	0.497368	0.517559	0.079639
205	C	0.465891	0.917999	0.008039
206	C	0.47551	0.935887	0.049134
207	C	0.493068	0.971085	0.049284
208	C	0.501445	0.989053	0.008018
209	N	0.491612	0.970613	0.302579
210	C	0.47458	0.936696	0.300976
211	C	0.519334	0.024818	0.339261
212	C	0.528927	0.042786	0.297993
213	C	0.546571	0.077983	0.298142
214	C	0.55484	0.09587	0.339237
215	C	0.544831	0.077176	0.046301
216	N	0.527942	0.043258	0.044698
217	H	0.550146	0.088756	0.077086
218	H	0.52335	0.030608	0.26762
219	H	0.553299	0.090484	0.267969
220	H	0.468318	0.925114	0.27019
221	H	0.469739	0.923385	0.079307
222	H	0.499671	0.983262	0.079657
223	C	0.342748	0.549547	0.04901
224	C	0.359744	0.553138	0.007905
225	C	0.342396	0.550535	0.300815
226	H	0.354084	0.55501	0.270157
227	H	0.355025	0.553425	0.079163
228	C	0.464183	0.65764	0.339119
229	C	0.467767	0.674623	0.298015
230	C	0.473399	0.707492	0.297859
231	C	0.47455	0.723571	0.339139
232	N	0.471183	0.706234	0.044582
233	C	0.466766	0.674955	0.046236
234	C	0.474564	0.75448	0.007852
235	C	0.473257	0.769338	0.049122
236	C	0.467581	0.796552	0.048917
237	C	0.464154	0.810025	0.007769
238	C	0.466889	0.795363	0.3007
239	N	0.471333	0.76852	0.30239
240	H	0.462573	0.802659	0.270004
241	H	0.473945	0.759165	0.079515
242	H	0.463652	0.804925	0.079062
243	H	0.462295	0.663256	0.076887
244	H	0.463988	0.662373	0.267857
245	H	0.474302	0.718466	0.267477
246	C	0.359681	0.81002	0.339119
247	C	0.342716	0.796572	0.29802
248	C	0.342351	0.795359	0.046251
249	H	0.354053	0.802532	0.076902
250	H	0.354953	0.805033	0.267851
251	C	0.813484	0.460714	0.339541
252	C	0.800145	0.464311	0.298386
253	C	0.772914	0.469961	0.298202
254	C	0.757992	0.471162	0.339467
255	N	0.771968	0.467817	0.044924
256	C	0.798846	0.46343	0.046644
257	C	0.727069	0.471122	0.008184
258	C	0.710952	0.469889	0.049468
259	C	0.678071	0.464231	0.049302
260	C	0.661148	0.460716	0.008167
261	C	0.67849	0.463405	0.301054
262	N	0.70978	0.467852	0.302722
263	H	0.666853	0.459057	0.270371
264	H	0.721845	0.470625	0.079854
265	H	0.665764	0.460302	0.079441
266	H	0.80597	0.45886	0.077303
267	H	0.808523	0.46039	0.268242
268	H	0.762783	0.47074	0.267815
269	C	0.556642	0.356274	0.339585
270	C	0.55312	0.339344	0.298435
271	C	0.547495	0.306473	0.298243
272	C	0.546223	0.290324	0.339511
273	N	0.549491	0.307609	0.04497
274	C	0.553924	0.33889	0.046664
275	C	0.546182	0.259402	0.008199
276	C	0.547415	0.244511	0.049473
277	C	0.553062	0.217282	0.049292
278	C	0.556549	0.203812	0.008183
279	C	0.553861	0.218503	0.301092
280	N	0.54946	0.245376	0.302756
281	H	0.55827	0.211248	0.270424
282	H	0.546705	0.254677	0.079863
283	H	0.557001	0.208918	0.079436
284	H	0.558342	0.350556	0.077331
285	H	0.557056	0.351647	0.26829
286	H	0.546716	0.295573	0.267845
287	C	0.661055	0.203881	0.33946
288	C	0.678037	0.217171	0.298326
289	C	0.710915	0.244404	0.298152
290	C	0.726983	0.259387	0.33942
291	N	0.709632	0.245484	0.044874
292	C	0.678344	0.218642	0.04657
293	C	0.757902	0.290277	0.008112
294	C	0.772719	0.30647	0.049384
295	C	0.799929	0.339357	0.049175
296	C	0.813458	0.356224	0.008025
297	C	0.798845	0.3388	0.300955
298	N	0.771989	0.307516	0.302644
299	H	0.806177	0.350391	0.270252
300	H	0.762514	0.295636	0.079778
301	H	0.808271	0.351679	0.079313
302	H	0.666635	0.211465	0.077216
303	H	0.665792	0.208655	0.268174
304	H	0.721905	0.254428	0.267762
305	C	0.448217	0.622321	0.339643
306	C	0.413021	0.60433	0.339994
307	C	0.395062	0.569137	0.340751
308	C	0.412872	0.551673	0.341312
309	C	0.448256	0.56917	0.340724
310	C	0.465719	0.604547	0.339849
311	H	0.39998	0.52611	0.341985
312	H	0.491289	0.617466	0.339616
313	H	0.400192	0.617134	0.339785
314	C	0.395001	0.829363	0.339649
315	C	0.41298	0.812146	0.33994
316	C	0.448171	0.829363	0.34069
317	C	0.46565	0.864638	0.341255
318	C	0.448167	0.882539	0.340734
319	C	0.412787	0.864638	0.339903
320	H	0.491215	0.8773	0.341897
321	H	0.399878	0.877297	0.339703
322	H	0.400165	0.78651	0.3397
323	C	0.832819	0.444723	0.339953
324	C	0.815591	0.409527	0.340643
325	C	0.832804	0.391544	0.340917
326	C	0.868079	0.409323	0.34064
327	C	0.885988	0.444705	0.339869
328	C	0.868092	0.462194	0.339406
329	H	0.880735	0.396411	0.340798
330	H	0.88076	0.48776	0.338794
331	H	0.789957	0.396718	0.340856
332	C	0.572639	0.391597	0.339967
333	C	0.607831	0.409555	0.340704
334	C	0.625823	0.444753	0.340974
335	C	0.608052	0.462254	0.340694
336	C	0.57267	0.44479	0.339879
337	C	0.555174	0.409405	0.339396
338	H	0.620971	0.487825	0.340879
339	H	0.52961	0.396514	0.338764
340	H	0.620635	0.396726	0.34095
341	C	0.625731	0.184521	0.339923
342	C	0.607742	0.201725	0.340673
343	C	0.572547	0.184493	0.340988
344	C	0.555072	0.149218	0.340731
345	C	0.572566	0.131331	0.339876
346	C	0.607949	0.149247	0.339332
347	H	0.529504	0.136545	0.34095
348	H	0.620864	0.136597	0.338666
349	H	0.62055	0.22736	0.3409
350	C	0.992501	0.497971	0.67259
351	C	0.974534	0.489485	0.631319
352	C	0.939336	0.471926	0.631468
353	C	0.921447	0.462424	0.672567
354	C	0.940142	0.471224	0.379633
355	N	0.974059	0.488244	0.378031
356	H	0.928562	0.465044	0.410424
357	H	0.986711	0.496006	0.600944
358	H	0.926835	0.466075	0.601292
359	C	0.466007	0.551459	0.341359
360	C	0.474198	0.541762	0.382451
361	C	0.491845	0.524213	0.382604
362	C	0.501526	0.515924	0.341339
363	N	0.492993	0.52583	0.635905
364	C	0.476104	0.54286	0.6343
365	C	0.519415	0.498048	0.672583
366	C	0.527868	0.488531	0.631316
367	C	0.545428	0.470892	0.631471
368	C	0.554959	0.462539	0.67257
369	C	0.546189	0.472467	0.379633
370	N	0.529169	0.489365	0.378028
371	H	0.552392	0.467091	0.410424
372	H	0.521328	0.494167	0.60094
373	H	0.551251	0.464213	0.601295
374	H	0.47084	0.549175	0.603515
375	H	0.467402	0.547468	0.412621
376	H	0.497368	0.517559	0.412972
377	C	0.465891	0.917999	0.341373
378	C	0.47551	0.935887	0.382468
379	C	0.493068	0.971085	0.382617
380	C	0.501445	0.989053	0.341353
381	N	0.491612	0.970613	0.635912
382	C	0.47458	0.936696	0.63431
383	C	0.519334	0.024818	0.672594
384	C	0.528927	0.042786	0.631326
385	C	0.546571	0.077983	0.631474
386	C	0.55484	0.09587	0.67257
387	C	0.544831	0.077176	0.379633
388	N	0.527942	0.043258	0.378031
389	H	0.550146	0.088756	0.410421
390	H	0.52335	0.030608	0.600954
391	H	0.553299	0.090484	0.601302
392	H	0.468318	0.925114	0.603522
393	H	0.469739	0.923385	0.412641
394	H	0.499671	0.983262	0.412989
395	C	0.342748	0.549547	0.382343
396	C	0.359744	0.553138	0.341238
397	C	0.342396	0.550535	0.634148
398	H	0.354084	0.55501	0.603492
399	H	0.355025	0.553425	0.412496
400	C	0.464183	0.65764	0.672452
401	C	0.467767	0.674623	0.631349
402	C	0.473399	0.707492	0.631194
403	C	0.47455	0.723571	0.672475
404	N	0.471183	0.706234	0.377916
405	C	0.466766	0.674955	0.379569
406	C	0.474564	0.75448	0.341187
407	C	0.473257	0.769338	0.382455
408	C	0.467581	0.796552	0.382252
409	C	0.464154	0.810025	0.341103
410	C	0.466889	0.795363	0.634033
411	N	0.471333	0.76852	0.635723
412	H	0.462573	0.802659	0.60334
413	H	0.473945	0.759165	0.412847
414	H	0.463652	0.804925	0.412394
415	H	0.462295	0.663256	0.410221
416	H	0.463988	0.662373	0.60119
417	H	0.474302	0.718466	0.600812
418	C	0.359681	0.81002	0.672452
419	C	0.342716	0.796572	0.631353
420	C	0.342351	0.795359	0.379586
421	H	0.354053	0.802532	0.410235
422	H	0.354953	0.805033	0.601183
423	C	0.813484	0.460714	0.672874
424	C	0.800145	0.464311	0.631721
425	C	0.772914	0.469961	0.631535
426	C	0.757992	0.471162	0.672803
427	N	0.771968	0.467817	0.378257
428	C	0.798846	0.46343	0.379978
429	C	0.727069	0.471122	0.341518
430	C	0.710952	0.469889	0.382803
431	C	0.678071	0.464231	0.382637
432	C	0.661148	0.460716	0.341501
433	C	0.67849	0.463405	0.634388
434	N	0.70978	0.467852	0.636057
435	H	0.666853	0.459057	0.603705
436	H	0.721845	0.470625	0.413189
437	H	0.665764	0.460302	0.412773
438	H	0.80597	0.45886	0.410637
439	H	0.808523	0.46039	0.601575
440	H	0.762783	0.47074	0.60115
441	C	0.556642	0.356274	0.672921
442	C	0.55312	0.339344	0.631769
443	C	0.547495	0.306473	0.631576
444	C	0.546223	0.290324	0.672844
445	N	0.549491	0.307609	0.378305
446	C	0.553924	0.33889	0.379998
447	C	0.546182	0.259402	0.341532
448	C	0.547415	0.244511	0.382806
449	C	0.553062	0.217282	0.382624
450	C	0.556549	0.203812	0.341515
451	C	0.553861	0.218503	0.634425
452	N	0.54946	0.245376	0.636091
453	H	0.55827	0.211248	0.603759
454	H	0.546705	0.254677	0.413199
455	H	0.557001	0.208918	0.41277
456	H	0.558342	0.350556	0.410664
457	H	0.557056	0.351647	0.601623
458	H	0.546716	0.295573	0.60118
459	C	0.661055	0.203881	0.672796
460	C	0.678037	0.217171	0.63166
461	C	0.710915	0.244404	0.631485
462	C	0.726983	0.259387	0.672752
463	N	0.709632	0.245484	0.378207
464	C	0.678344	0.218642	0.379903
465	C	0.757902	0.290277	0.341447
466	C	0.772719	0.30647	0.382718
467	C	0.799929	0.339357	0.382509
468	C	0.813458	0.356224	0.341359
469	C	0.798845	0.3388	0.63429
470	N	0.771989	0.307516	0.635976
471	H	0.806177	0.350391	0.603586
472	H	0.762514	0.295636	0.413111
473	H	0.808271	0.351679	0.412648
474	H	0.666635	0.211465	0.410549
475	H	0.665792	0.208655	0.601508
476	H	0.721905	0.254428	0.601096
477	C	0.448217	0.622321	0.672975
478	C	0.413021	0.60433	0.673327
479	C	0.395062	0.569137	0.674084
480	C	0.412872	0.551673	0.674645
481	C	0.448256	0.56917	0.674057
482	C	0.465719	0.604547	0.673182
483	H	0.39998	0.52611	0.675318
484	H	0.491289	0.617466	0.672952
485	H	0.400192	0.617134	0.673117
486	C	0.395001	0.829363	0.672982
487	C	0.41298	0.812146	0.673273
488	C	0.448171	0.829363	0.674027
489	C	0.46565	0.864638	0.674588
490	C	0.448167	0.882539	0.674067
491	C	0.412787	0.864638	0.673236
492	H	0.491215	0.8773	0.675233
493	H	0.399878	0.877297	0.67304
494	H	0.400165	0.78651	0.673036
495	C	0.832819	0.444723	0.67329
496	C	0.815591	0.409527	0.673979
497	C	0.832804	0.391544	0.67425
498	C	0.868079	0.409323	0.673972
499	C	0.885988	0.444705	0.673205
500	C	0.868092	0.462194	0.672742
501	H	0.880735	0.396411	0.674131
502	H	0.88076	0.48776	0.672127
503	H	0.789957	0.396718	0.674189
504	C	0.572639	0.391597	0.6733
505	C	0.607831	0.409555	0.674037
506	C	0.625823	0.444753	0.674307
507	C	0.608052	0.462254	0.674027
508	C	0.57267	0.44479	0.673212
509	C	0.555174	0.409405	0.672729
510	H	0.620971	0.487825	0.674212
511	H	0.52961	0.396514	0.672097
512	H	0.620635	0.396726	0.674287
513	C	0.625731	0.184521	0.673256
514	C	0.607742	0.201725	0.674006
515	C	0.572547	0.184493	0.674324
516	C	0.555072	0.149218	0.674064
517	C	0.572566	0.131331	0.673209
518	C	0.607949	0.149247	0.672665
519	H	0.529504	0.136545	0.674283
520	H	0.620864	0.136597	0.671999
521	H	0.62055	0.22736	0.674233
522	C	0.992501	0.497971	0.005923
523	C	0.974534	0.489485	0.964652
524	C	0.939336	0.471926	0.964801
525	C	0.921447	0.462424	0.005899
526	C	0.940142	0.471224	0.712969
527	N	0.974059	0.488244	0.711364
528	H	0.928562	0.465044	0.743757
529	H	0.986711	0.496006	0.934276
530	H	0.926835	0.466075	0.934625
531	C	0.466007	0.551459	0.674692
532	C	0.474198	0.541762	0.715784
533	C	0.491845	0.524213	0.715936
534	C	0.501526	0.515924	0.674675
535	N	0.492993	0.52583	0.969238
536	C	0.476104	0.54286	0.967633
537	C	0.519415	0.498048	0.005916
538	C	0.527868	0.488531	0.964652
539	C	0.545428	0.470892	0.964804
540	C	0.554959	0.462539	0.005903
541	C	0.546189	0.472467	0.712969
542	N	0.529169	0.489365	0.711361
543	H	0.552392	0.467091	0.743757
544	H	0.521328	0.494167	0.934276
545	H	0.551251	0.464213	0.934631
546	H	0.47084	0.549175	0.936852
547	H	0.467402	0.547468	0.745957
548	H	0.497368	0.517559	0.746305
549	C	0.465891	0.917999	0.674706
550	C	0.47551	0.935887	0.715801
551	C	0.493068	0.971085	0.71595
552	C	0.501445	0.989053	0.674686
553	N	0.491612	0.970613	0.969245
554	C	0.47458	0.936696	0.967643
555	C	0.519334	0.024818	0.005927
556	C	0.528927	0.042786	0.964662
557	C	0.546571	0.077983	0.964811
558	C	0.55484	0.09587	0.005906
559	C	0.544831	0.077176	0.712969
560	N	0.527942	0.043258	0.711367
561	H	0.550146	0.088756	0.743754
562	H	0.52335	0.030608	0.934287
563	H	0.553299	0.090484	0.934638
564	H	0.468318	0.925114	0.936858
565	H	0.469739	0.923385	0.745974
566	H	0.499671	0.983262	0.746326
567	C	0.342748	0.549547	0.715676
568	C	0.359744	0.553138	0.674571
569	C	0.342396	0.550535	0.967481
570	H	0.354084	0.55501	0.936825
571	H	0.355025	0.553425	0.745832
572	C	0.464183	0.65764	0.005788
573	C	0.467767	0.674623	0.964682
574	C	0.473399	0.707492	0.964527
575	C	0.47455	0.723571	0.005808
576	N	0.471183	0.706234	0.711249
577	C	0.466766	0.674955	0.712905
578	C	0.474564	0.75448	0.67452
579	C	0.473257	0.769338	0.715788
580	C	0.467581	0.796552	0.715585
581	C	0.464154	0.810025	0.674435
582	C	0.466889	0.795363	0.967369
583	N	0.471333	0.76852	0.969059
584	H	0.462573	0.802659	0.936673
585	H	0.473945	0.759165	0.746184
586	H	0.463652	0.804925	0.745731
587	H	0.462295	0.663256	0.743554
588	H	0.463988	0.662373	0.934523
589	H	0.474302	0.718466	0.934145
590	C	0.359681	0.81002	0.005785
591	C	0.342716	0.796572	0.964689
592	C	0.342351	0.795359	0.712919
593	H	0.354053	0.802532	0.743571
594	H	0.354953	0.805033	0.93452
595	C	0.813484	0.460714	0.00621
596	C	0.800145	0.464311	0.965054
597	C	0.772914	0.469961	0.964872
598	C	0.757992	0.471162	0.006136
599	N	0.771968	0.467817	0.71159
600	C	0.798846	0.46343	0.713311
601	C	0.727069	0.471122	0.674851
602	C	0.710952	0.469889	0.716136
603	C	0.678071	0.464231	0.71597
604	C	0.661148	0.460716	0.674834
605	C	0.67849	0.463405	0.967721
606	N	0.70978	0.467852	0.96939
607	H	0.666853	0.459057	0.937038
608	H	0.721845	0.470625	0.746522
609	H	0.665764	0.460302	0.746109
610	H	0.80597	0.45886	0.74397
611	H	0.808523	0.46039	0.934908
612	H	0.762783	0.47074	0.934483
613	C	0.556642	0.356274	0.006254
614	C	0.55312	0.339344	0.965101
615	C	0.547495	0.306473	0.964909
616	C	0.546223	0.290324	0.00618
617	N	0.549491	0.307609	0.711638
618	C	0.553924	0.33889	0.713331
619	C	0.546182	0.259402	0.674865
620	C	0.547415	0.244511	0.716139
621	C	0.553062	0.217282	0.71596
622	C	0.556549	0.203812	0.674851
623	C	0.553861	0.218503	0.967758
624	N	0.54946	0.245376	0.969424
625	H	0.55827	0.211248	0.937092
626	H	0.546705	0.254677	0.746532
627	H	0.557001	0.208918	0.746102
628	H	0.558342	0.350556	0.744
629	H	0.557056	0.351647	0.934959
630	H	0.546716	0.295573	0.934513
631	C	0.661055	0.203881	0.006129
632	C	0.678037	0.217171	0.964993
633	C	0.710915	0.244404	0.964821
634	C	0.726983	0.259387	0.006085
635	N	0.709632	0.245484	0.711543
636	C	0.678344	0.218642	0.713236
637	C	0.757902	0.290277	0.67478
638	C	0.772719	0.30647	0.716051
639	C	0.799929	0.339357	0.715842
640	C	0.813458	0.356224	0.674692
641	C	0.798845	0.3388	0.967623
642	N	0.771989	0.307516	0.969312
643	H	0.806177	0.350391	0.936919
644	H	0.762514	0.295636	0.746444
645	H	0.808271	0.351679	0.745981
646	H	0.666635	0.211465	0.743882
647	H	0.665792	0.208655	0.934841
648	H	0.721905	0.254428	0.934429
