data_C189H108N108_2018-02-15_10:38:26
#******************************************
#
# CIF file created by Zeo++
# Zeo++ is an open source package to
# analyze microporous materials
#
#*******************************************

_cell_length_a		30.2421   
_cell_length_b		30.2421   
_cell_length_c		29.7558   
_cell_angle_alpha		90   
_cell_angle_beta		90   
_cell_angle_gamma		120   

_symmetry_space_group_name_H-M		'P1'
_symmetry_Int_Tables_number		1
_symmetry_cell_setting		Monoclinic

loop_
_symmetry_equiv_pos_as_xyz
'+x,+y,+z'

loop_
_atom_site_label
_atom_site_type_symbol
_atom_site_fract_x
_atom_site_fract_y
_atom_site_fract_z
1	C	0.031468	0.456445	0.364305
2	N	0.032502	0.534909	0.024946
3	H	0.027039	0.383147	0.371336
4	C	0.031468	0.456445	0.697638
5	N	0.032502	0.534909	0.35828
6	H	0.027039	0.383147	0.704669
7	C	0.031468	0.456445	0.030973
8	N	0.032502	0.534909	0.691613
9	H	0.027039	0.383147	0.038001
10	C	0.060491	0.510854	0.360286
11	C	0.054956	0.423403	0.365959
12	H	0.082327	0.435434	0.393547
13	H	0.074269	0.426079	0.33426
14	C	0.060491	0.510854	0.693619
15	C	0.054956	0.423403	0.699292
16	H	0.082327	0.435434	0.72688
17	H	0.074269	0.426079	0.667594
18	C	0.060491	0.510854	0.026953
19	C	0.054956	0.423403	0.032625
20	H	0.082327	0.435434	0.060211
21	H	0.074269	0.426079	0.000927
22	C	0.114889	0.541759	0.019664
23	C	0.114889	0.541759	0.352997
24	C	0.114889	0.541759	0.68633
25	C	0.186116	0.623254	0.998322
26	N	0.13709	0.593881	0.013346
27	N	0.145522	0.520365	0.014007
28	C	0.194706	0.547142	0.999069
29	N	0.21069	0.596886	0.991786
30	C	0.387102	0.565137	0.998322
31	N	0.416571	0.545455	0.013055
32	C	0.468736	0.575416	0.019158
33	N	0.490037	0.627439	0.013627
34	C	0.463195	0.649836	0.998887
35	N	0.413429	0.61608	0.991749
36	C	0.44524	0.824201	0.998491
37	N	0.464928	0.873292	0.013357
38	C	0.434996	0.895491	0.019664
39	N	0.382962	0.864838	0.014092
40	C	0.360557	0.81561	0.999284
41	N	0.394303	0.799631	0.991961
42	C	0.818835	0.362017	0.001666
43	N	0.868089	0.384782	0.016415
44	C	0.89754	0.436972	0.022143
45	N	0.874785	0.466365	0.01609
46	C	0.825434	0.445892	0.001596
47	N	0.801791	0.39498	0.994753
48	C	0.648339	0.458824	0.001152
49	N	0.625642	0.485364	0.015888
50	C	0.573477	0.462734	0.021693
51	N	0.54403	0.410566	0.015781
52	C	0.564375	0.381612	0.001166
53	N	0.615314	0.408806	0.994347
54	C	0.55159	0.191517	0.001398
55	N	0.525113	0.142346	0.016335
56	C	0.547783	0.112843	0.022088
57	N	0.599922	0.135532	0.016029
58	C	0.628831	0.184794	0.001324
59	N	0.601604	0.208508	0.994532
60	C	0.951699	0.460427	0.361996
61	C	0.977308	0.432207	0.36531
62	H	0.956157	0.393212	0.36657
63	N	0.982423	0.511923	0.025599
64	C	0.550205	0.493634	0.361402
65	C	0.578549	0.547555	0.362998
66	C	0.554355	0.577501	0.361822
67	C	0.499805	0.55206	0.359607
68	N	0.475659	0.499961	0.025668
69	H	0.617572	0.565401	0.363095
70	N	0.49862	0.472829	0.026362
71	C	0.587597	0.634048	0.36125
72	H	0.628094	0.646503	0.36491
73	H	0.577277	0.650734	0.388979
74	H	0.583121	0.649264	0.329404
75	C	0.516981	0.058706	0.36202
76	C	0.463125	0.033137	0.364934
77	C	0.43315	0.978987	0.363858
78	C	0.458512	0.949911	0.360202
79	N	0.510574	0.977845	0.025182
80	H	0.445308	0.054324	0.365918
81	N	0.537712	0.027923	0.025866
82	C	0.376612	0.955585	0.365018
83	H	0.364273	0.98355	0.370012
84	H	0.360954	0.928293	0.392649
85	H	0.360277	0.936185	0.33328
86	C	0.333437	0.544764	0.993749
87	C	0.29208	0.502111	0.014985
88	C	0.242178	0.496998	0.016075
89	C	0.234684	0.535237	0.995016
90	N	0.275471	0.570662	0.304678
91	H	0.299633	0.478388	0.033848
92	N	0.320088	0.575065	0.304094
93	C	0.200719	0.455995	0.042962
94	H	0.212089	0.430081	0.05763
95	H	0.167628	0.433567	0.021513
96	H	0.189776	0.472642	0.070293
97	C	0.46567	0.790991	0.993702
98	C	0.508224	0.792171	0.015008
99	C	0.513383	0.74741	0.015967
100	C	0.475156	0.701729	0.994831
101	N	0.43966	0.707098	0.304622
102	H	0.532046	0.823438	0.033837
103	N	0.435283	0.747326	0.304095
104	C	0.554402	0.74691	0.042793
105	H	0.580265	0.784118	0.057554
106	H	0.576868	0.736356	0.021253
107	H	0.537761	0.71919	0.070048
108	C	0.21944	0.676907	0.993765
109	C	0.21811	0.718266	0.014962
110	C	0.262912	0.768158	0.016117
111	C	0.308692	0.775615	0.995177
112	N	0.303327	0.734867	0.304774
113	H	0.186872	0.710752	0.033858
114	N	0.263098	0.690263	0.304127
115	C	0.263338	0.80962	0.042973
116	H	0.226069	0.798299	0.057553
117	H	0.274099	0.842746	0.021505
118	H	0.29089	0.820547	0.070361
119	C	0.700273	0.471634	0.996477
120	C	0.744961	0.510556	0.017572
121	C	0.791069	0.5078	0.018423
122	C	0.791414	0.465582	0.997207
123	N	0.748349	0.434323	0.307061
124	H	0.74212	0.537226	0.036541
125	N	0.707086	0.436858	0.306721
126	C	0.83548	0.544641	0.04546
127	H	0.82973	0.574553	0.059957
128	H	0.869413	0.562908	0.024208
129	H	0.842188	0.524779	0.072919
130	C	0.538946	0.230781	0.996911
131	C	0.50003	0.236581	0.017959
132	C	0.50268	0.285409	0.018584
133	C	0.544748	0.327875	0.997099
134	N	0.575959	0.315963	0.306999
135	H	0.473286	0.207106	0.036915
136	N	0.573529	0.272211	0.306871
137	C	0.465855	0.293058	0.045557
138	H	0.436049	0.25747	0.060252
139	H	0.447449	0.308495	0.024206
140	H	0.485759	0.319847	0.072867
141	C	0.779735	0.310085	0.996864
142	C	0.773946	0.265334	0.017845
143	C	0.725051	0.219228	0.018576
144	C	0.682553	0.218949	0.997284
145	N	0.694479	0.261991	0.307062
146	H	0.803316	0.268113	0.036981
147	N	0.738275	0.303258	0.306876
148	C	0.71741	0.174754	0.04555
149	H	0.753029	0.180456	0.060105
150	H	0.701795	0.140874	0.024235
151	H	0.690769	0.167984	0.072962
152	C	0.186116	0.623254	0.331657
153	N	0.13709	0.593881	0.346678
154	N	0.145522	0.520365	0.34734
155	C	0.194706	0.547142	0.332403
156	N	0.21069	0.596886	0.325118
157	C	0.387102	0.565137	0.331657
158	N	0.416571	0.545455	0.346389
159	C	0.468736	0.575416	0.352492
160	N	0.490037	0.627439	0.346961
161	C	0.463195	0.649836	0.332219
162	N	0.413429	0.61608	0.325081
163	C	0.44524	0.824201	0.331822
164	N	0.464928	0.873292	0.346692
165	C	0.434996	0.895491	0.352997
166	N	0.382962	0.864838	0.347425
167	C	0.360557	0.81561	0.332616
168	N	0.394303	0.799631	0.325294
169	C	0.818835	0.362017	0.334999
170	N	0.868089	0.384782	0.34975
171	C	0.89754	0.436972	0.355477
172	N	0.874785	0.466365	0.349424
173	C	0.825434	0.445892	0.33493
174	N	0.801791	0.39498	0.328087
175	C	0.648339	0.458824	0.334485
176	N	0.625642	0.485364	0.349222
177	C	0.573477	0.462734	0.355026
178	N	0.54403	0.410566	0.349115
179	C	0.564375	0.381612	0.334499
180	N	0.615314	0.408806	0.327681
181	C	0.55159	0.191517	0.334729
182	N	0.525113	0.142346	0.349669
183	C	0.547783	0.112843	0.355423
184	N	0.599922	0.135532	0.349364
185	C	0.628831	0.184794	0.334656
186	N	0.601604	0.208508	0.327864
187	C	0.951699	0.460427	0.69533
188	C	0.977308	0.432207	0.698643
189	H	0.956157	0.393212	0.699904
190	N	0.982423	0.511923	0.358932
191	C	0.550205	0.493634	0.694738
192	C	0.578549	0.547555	0.696331
193	C	0.554355	0.577501	0.695155
194	C	0.499805	0.55206	0.69294
195	N	0.475659	0.499961	0.359002
196	H	0.617572	0.565401	0.696429
197	N	0.49862	0.472829	0.359694
198	C	0.587597	0.634048	0.694587
199	H	0.628094	0.646503	0.698243
200	H	0.577277	0.650734	0.722316
201	H	0.583121	0.649264	0.662738
202	C	0.516981	0.058706	0.695353
203	C	0.463125	0.033137	0.698267
204	C	0.43315	0.978987	0.697191
205	C	0.458512	0.949911	0.693535
206	N	0.510574	0.977845	0.358515
207	H	0.445308	0.054324	0.699255
208	N	0.537712	0.027923	0.3592
209	C	0.376612	0.955585	0.698354
210	H	0.364273	0.98355	0.703345
211	H	0.360954	0.928293	0.725982
212	H	0.360277	0.936185	0.666613
213	C	0.333437	0.544764	0.327083
214	C	0.29208	0.502111	0.348318
215	C	0.242178	0.496998	0.349407
216	C	0.234684	0.535237	0.328347
217	N	0.275471	0.570662	0.63801
218	H	0.299633	0.478388	0.367182
219	N	0.320088	0.575065	0.637428
220	C	0.200719	0.455995	0.376296
221	H	0.212089	0.430081	0.390962
222	H	0.167628	0.433567	0.354845
223	H	0.189776	0.472642	0.403625
224	C	0.46567	0.790991	0.327034
225	C	0.508224	0.792171	0.348342
226	C	0.513383	0.74741	0.3493
227	C	0.475156	0.701729	0.328163
228	N	0.43966	0.707098	0.637956
229	H	0.532046	0.823438	0.367172
230	N	0.435283	0.747326	0.637428
231	C	0.554402	0.74691	0.376125
232	H	0.580265	0.784118	0.390888
233	H	0.576868	0.736356	0.354586
234	H	0.537761	0.71919	0.40338
235	C	0.21944	0.676907	0.327099
236	C	0.21811	0.718266	0.348295
237	C	0.262912	0.768158	0.349451
238	C	0.308692	0.775615	0.32851
239	N	0.303327	0.734867	0.638107
240	H	0.186872	0.710752	0.367192
241	N	0.263098	0.690263	0.637459
242	C	0.263338	0.80962	0.376306
243	H	0.226069	0.798299	0.390888
244	H	0.274099	0.842746	0.354838
245	H	0.29089	0.820547	0.403696
246	C	0.700273	0.471634	0.329811
247	C	0.744961	0.510556	0.350906
248	C	0.791069	0.5078	0.351756
249	C	0.791414	0.465582	0.330539
250	N	0.748349	0.434323	0.640396
251	H	0.74212	0.537226	0.369874
252	N	0.707086	0.436858	0.640053
253	C	0.83548	0.544641	0.378793
254	H	0.82973	0.574553	0.393291
255	H	0.869413	0.562908	0.35754
256	H	0.842188	0.524779	0.406253
257	C	0.538946	0.230781	0.330244
258	C	0.50003	0.236581	0.351293
259	C	0.50268	0.285409	0.351918
260	C	0.544748	0.327875	0.330433
261	N	0.575959	0.315963	0.640332
262	H	0.473286	0.207106	0.370247
263	N	0.573529	0.272211	0.640204
264	C	0.465855	0.293058	0.378891
265	H	0.436049	0.25747	0.393587
266	H	0.447449	0.308495	0.35754
267	H	0.485759	0.319847	0.4062
268	C	0.779735	0.310085	0.330197
269	C	0.773946	0.265334	0.351178
270	C	0.725051	0.219228	0.351908
271	C	0.682553	0.218949	0.330617
272	N	0.694479	0.261991	0.640396
273	H	0.803316	0.268113	0.370314
274	N	0.738275	0.303258	0.640211
275	C	0.71741	0.174754	0.378884
276	H	0.753029	0.180456	0.393439
277	H	0.701795	0.140874	0.35757
278	H	0.690769	0.167984	0.406294
279	C	0.186116	0.623254	0.664989
280	N	0.13709	0.593881	0.680012
281	N	0.145522	0.520365	0.680674
282	C	0.194706	0.547142	0.665735
283	N	0.21069	0.596886	0.658449
284	C	0.387102	0.565137	0.664989
285	N	0.416571	0.545455	0.679723
286	C	0.468736	0.575416	0.685826
287	N	0.490037	0.627439	0.680294
288	C	0.463195	0.649836	0.665554
289	N	0.413429	0.61608	0.658416
290	C	0.44524	0.824201	0.665154
291	N	0.464928	0.873292	0.680025
292	C	0.434996	0.895491	0.68633
293	N	0.382962	0.864838	0.680758
294	C	0.360557	0.81561	0.66595
295	N	0.394303	0.799631	0.658628
296	C	0.818835	0.362017	0.668333
297	N	0.868089	0.384782	0.683083
298	C	0.89754	0.436972	0.68881
299	N	0.874785	0.466365	0.682757
300	C	0.825434	0.445892	0.668263
301	N	0.801791	0.39498	0.66142
302	C	0.648339	0.458824	0.667819
303	N	0.625642	0.485364	0.682556
304	C	0.573477	0.462734	0.68836
305	N	0.54403	0.410566	0.682448
306	C	0.564375	0.381612	0.667832
307	N	0.615314	0.408806	0.661014
308	C	0.55159	0.191517	0.668061
309	N	0.525113	0.142346	0.683003
310	C	0.547783	0.112843	0.688756
311	N	0.599922	0.135532	0.682697
312	C	0.628831	0.184794	0.66799
313	N	0.601604	0.208508	0.661198
314	C	0.951699	0.460427	0.028662
315	C	0.977308	0.432207	0.031976
316	H	0.956157	0.393212	0.033237
317	N	0.982423	0.511923	0.692265
318	C	0.550205	0.493634	0.02807
319	C	0.578549	0.547555	0.029665
320	C	0.554355	0.577501	0.028487
321	C	0.499805	0.55206	0.026272
322	N	0.475659	0.499961	0.692335
323	H	0.617572	0.565401	0.029762
324	N	0.49862	0.472829	0.693031
325	C	0.587597	0.634048	0.027918
326	H	0.628094	0.646503	0.031577
327	H	0.577277	0.650734	0.055647
328	H	0.583121	0.649264	0.996071
329	C	0.516981	0.058706	0.028685
330	C	0.463125	0.033137	0.031599
331	C	0.43315	0.978987	0.030523
332	C	0.458512	0.949911	0.026869
333	N	0.510574	0.977845	0.691848
334	H	0.445308	0.054324	0.032586
335	N	0.537712	0.027923	0.692534
336	C	0.376612	0.955585	0.031686
337	H	0.364273	0.98355	0.036678
338	H	0.360954	0.928293	0.059316
339	H	0.360277	0.936185	0.999949
340	C	0.333437	0.544764	0.660415
341	C	0.29208	0.502111	0.681652
342	C	0.242178	0.496998	0.68274
343	C	0.234684	0.535237	0.661679
344	N	0.275471	0.570662	0.971346
345	H	0.299633	0.478388	0.700515
346	N	0.320088	0.575065	0.970761
347	C	0.200719	0.455995	0.709629
348	H	0.212089	0.430081	0.724299
349	H	0.167628	0.433567	0.688178
350	H	0.189776	0.472642	0.736962
351	C	0.46567	0.790991	0.660368
352	C	0.508224	0.792171	0.681675
353	C	0.513383	0.74741	0.682633
354	C	0.475156	0.701729	0.661498
355	N	0.43966	0.707098	0.971289
356	H	0.532046	0.823438	0.700505
357	N	0.435283	0.747326	0.970761
358	C	0.554402	0.74691	0.709458
359	H	0.580265	0.784118	0.724221
360	H	0.576868	0.736356	0.687919
361	H	0.537761	0.71919	0.736716
362	C	0.21944	0.676907	0.660432
363	C	0.21811	0.718266	0.681628
364	C	0.262912	0.768158	0.682784
365	C	0.308692	0.775615	0.661844
366	N	0.303327	0.734867	0.97144
367	H	0.186872	0.710752	0.700525
368	N	0.263098	0.690263	0.970795
369	C	0.263338	0.80962	0.709639
370	H	0.226069	0.798299	0.724221
371	H	0.274099	0.842746	0.688171
372	H	0.29089	0.820547	0.737029
373	C	0.700273	0.471634	0.663144
374	C	0.744961	0.510556	0.684239
375	C	0.791069	0.5078	0.68509
376	C	0.791414	0.465582	0.663874
377	N	0.748349	0.434323	0.973729
378	H	0.74212	0.537226	0.703207
379	N	0.707086	0.436858	0.973386
380	C	0.83548	0.544641	0.712126
381	H	0.82973	0.574553	0.726624
382	H	0.869413	0.562908	0.690877
383	H	0.842188	0.524779	0.739587
384	C	0.538946	0.230781	0.663578
385	C	0.50003	0.236581	0.684626
386	C	0.50268	0.285409	0.685251
387	C	0.544748	0.327875	0.663766
388	N	0.575959	0.315963	0.973665
389	H	0.473286	0.207106	0.70358
390	N	0.573529	0.272211	0.973537
391	C	0.465855	0.293058	0.712224
392	H	0.436049	0.25747	0.72692
393	H	0.447449	0.308495	0.690873
394	H	0.485759	0.319847	0.739536
395	C	0.779735	0.310085	0.663531
396	C	0.773946	0.265334	0.684512
397	C	0.725051	0.219228	0.685244
398	C	0.682553	0.218949	0.663951
399	N	0.694479	0.261991	0.973729
400	H	0.803316	0.268113	0.703647
401	N	0.738275	0.303258	0.973544
402	C	0.71741	0.174754	0.712217
403	H	0.753029	0.180456	0.726772
404	H	0.701795	0.140874	0.690904
405	H	0.690769	0.167984	0.73963
