data_C252H72N144O72_2018-02-15_10:38:01
#******************************************
#
# CIF file created by Zeo++
# Zeo++ is an open source package to
# analyze microporous materials
#
#*******************************************

_cell_length_a		29.1214   
_cell_length_b		29.1214   
_cell_length_c		29.7856   
_cell_angle_alpha		90   
_cell_angle_beta		90   
_cell_angle_gamma		120   

_symmetry_space_group_name_H-M		'P1'
_symmetry_Int_Tables_number		1
_symmetry_cell_setting		Monoclinic

loop_
_symmetry_equiv_pos_as_xyz
'+x,+y,+z'

loop_
_atom_site_label
_atom_site_type_symbol
_atom_site_fract_x
_atom_site_fract_y
_atom_site_fract_z
1	N	0.049392	0.321432	0.353812
2	C	0.044137	0.238323	0.032199
3	O	0.039846	0.159456	0.030472
4	N	0.049392	0.321432	0.687147
5	C	0.044137	0.238323	0.365532
6	O	0.039846	0.159456	0.363807
7	N	0.049392	0.321432	0.020479
8	C	0.044137	0.238323	0.698868
9	O	0.039846	0.159456	0.697139
10	N	0.049394	0.821433	0.353829
11	C	0.044139	0.73832	0.032195
12	O	0.039849	0.659453	0.030437
13	N	0.049394	0.821433	0.687161
14	C	0.044139	0.73832	0.365529
15	O	0.039849	0.659453	0.36377
16	N	0.049394	0.821433	0.020494
17	C	0.044139	0.73832	0.698861
18	O	0.039849	0.659453	0.697105
19	C	0.075833	0.294279	0.026251
20	C	0.062377	0.204906	0.045173
21	O	0.081812	0.212569	0.083268
22	C	0.075833	0.294279	0.359586
23	C	0.062377	0.204906	0.378505
24	O	0.081812	0.212569	0.416601
25	C	0.075833	0.294279	0.692919
26	C	0.062377	0.204906	0.71184
27	O	0.081812	0.212569	0.749936
28	C	0.075834	0.794275	0.026254
29	C	0.062383	0.704901	0.045149
30	O	0.081827	0.71255	0.08324
31	C	0.075834	0.794275	0.359586
32	C	0.062383	0.704901	0.378481
33	O	0.081827	0.71255	0.416574
34	C	0.075834	0.794275	0.692922
35	C	0.062383	0.704901	0.711817
36	O	0.081827	0.71255	0.749906
37	H	0.10661	0.458044	0.063231
38	H	0.090842	0.191254	0.096994
39	H	0.10661	0.458044	0.396564
40	H	0.090842	0.191254	0.430329
41	H	0.10661	0.458044	0.729896
42	H	0.090842	0.191254	0.763661
43	H	0.106619	0.958043	0.063254
44	H	0.090863	0.691234	0.096953
45	H	0.106619	0.958043	0.396587
46	H	0.090863	0.691234	0.430285
47	H	0.106619	0.958043	0.72992
48	H	0.090863	0.691234	0.76362
49	C	0.213028	0.406819	0.021215
50	N	0.159114	0.37737	0.023008
51	C	0.131785	0.323529	0.024453
52	N	0.160875	0.299109	0.022615
53	C	0.214509	0.325023	0.019978
54	N	0.239836	0.379291	0.019963
55	C	0.327377	0.131944	0.020629
56	N	0.381314	0.160313	0.022231
57	C	0.4089	0.21434	0.021804
58	N	0.381211	0.240253	0.020058
59	C	0.327587	0.214263	0.018804
60	N	0.301391	0.160075	0.019002
61	C	0.241125	0.295503	0.01796
62	N	0.295082	0.322496	0.353785
63	C	0.325625	0.299298	0.3536
64	C	0.300969	0.243419	0.018001
65	N	0.247562	0.216668	0.014658
66	C	0.216443	0.239117	0.014337
67	H	0.365825	0.322731	0.356048
68	C	0.163221	0.204053	0.006977
69	O	0.146797	0.205064	0.969448
70	O	0.140362	0.159563	0.024575
71	H	0.148566	0.152219	0.051254
72	C	0.239373	0.463167	0.020853
73	N	0.293466	0.490546	0.354245
74	C	0.324051	0.044351	0.354285
75	C	0.299596	0.075818	0.020686
76	N	0.245718	0.048714	0.020477
77	C	0.214563	0.494849	0.020552
78	H	0.364345	0.061046	0.354349
79	C	0.160564	0.475051	0.020845
80	O	0.142066	0.488853	0.9902
81	O	0.140097	0.467025	0.058441
82	C	0.495826	0.298649	0.352734
83	C	0.464515	0.243007	0.02334
84	N	0.490639	0.216144	0.030258
85	H	0.479353	0.322035	0.347718
86	C	0.213028	0.406819	0.354547
87	N	0.159114	0.37737	0.356343
88	C	0.131785	0.323529	0.357787
89	N	0.160875	0.299109	0.355947
90	C	0.214509	0.325023	0.353312
91	N	0.239836	0.379291	0.353295
92	C	0.327377	0.131944	0.353963
93	N	0.381314	0.160313	0.355564
94	C	0.4089	0.21434	0.355138
95	N	0.381211	0.240253	0.353392
96	C	0.327587	0.214263	0.352136
97	N	0.301391	0.160075	0.352335
98	C	0.241125	0.295503	0.351294
99	N	0.295082	0.322496	0.687117
100	C	0.325625	0.299298	0.686932
101	C	0.300969	0.243419	0.351334
102	N	0.247562	0.216668	0.34799
103	C	0.216443	0.239117	0.347671
104	H	0.365825	0.322731	0.689383
105	C	0.163221	0.204053	0.340309
106	O	0.146797	0.205064	0.302781
107	O	0.140362	0.159563	0.357908
108	H	0.148566	0.152219	0.384588
109	C	0.239373	0.463167	0.354184
110	N	0.293466	0.490546	0.68758
111	C	0.324051	0.044351	0.687621
112	C	0.299596	0.075818	0.35402
113	N	0.245718	0.048714	0.353812
114	C	0.214563	0.494849	0.353886
115	H	0.364345	0.061046	0.687681
116	C	0.160564	0.475051	0.354178
117	O	0.142066	0.488853	0.323534
118	O	0.140097	0.467025	0.391773
119	C	0.495826	0.298649	0.686066
120	C	0.464515	0.243007	0.356672
121	N	0.490639	0.216144	0.363592
122	H	0.479353	0.322035	0.681054
123	C	0.213028	0.406819	0.687883
124	N	0.159114	0.37737	0.689675
125	C	0.131785	0.323529	0.691119
126	N	0.160875	0.299109	0.689283
127	C	0.214509	0.325023	0.686644
128	N	0.239836	0.379291	0.68663
129	C	0.327377	0.131944	0.687295
130	N	0.381314	0.160313	0.688896
131	C	0.4089	0.21434	0.68847
132	N	0.381211	0.240253	0.686724
133	C	0.327587	0.214263	0.685472
134	N	0.301391	0.160075	0.68567
135	C	0.241125	0.295503	0.684626
136	N	0.295082	0.322496	0.020451
137	C	0.325625	0.299298	0.020265
138	C	0.300969	0.243419	0.684666
139	N	0.247562	0.216668	0.681326
140	C	0.216443	0.239117	0.681003
141	H	0.365825	0.322731	0.022715
142	C	0.163221	0.204053	0.673644
143	O	0.146797	0.205064	0.636116
144	O	0.140362	0.159563	0.691243
145	H	0.148566	0.152219	0.717921
146	C	0.239373	0.463167	0.68752
147	N	0.293466	0.490546	0.020913
148	C	0.324051	0.044351	0.020953
149	C	0.299596	0.075818	0.687352
150	N	0.245718	0.048714	0.687144
151	C	0.214563	0.494849	0.687218
152	H	0.364345	0.061046	0.021015
153	C	0.160564	0.475051	0.687513
154	O	0.142066	0.488853	0.656868
155	O	0.140097	0.467025	0.725109
156	C	0.495826	0.298649	0.0194
157	C	0.464515	0.243007	0.690008
158	N	0.490639	0.216144	0.696924
159	H	0.479353	0.322035	0.014386
160	C	0.213028	0.906818	0.021216
161	N	0.159115	0.877369	0.023011
162	C	0.131788	0.82353	0.024452
163	N	0.160877	0.799109	0.022607
164	C	0.214512	0.825025	0.019969
165	N	0.239838	0.879292	0.019959
166	C	0.327377	0.631943	0.020632
167	N	0.381314	0.660313	0.022239
168	C	0.4089	0.714338	0.021818
169	N	0.381211	0.740251	0.020072
170	C	0.327588	0.714263	0.01881
171	N	0.301392	0.660076	0.019002
172	C	0.241127	0.795505	0.017948
173	N	0.295082	0.822495	0.353792
174	C	0.325626	0.799299	0.35361
175	C	0.300969	0.743419	0.018002
176	N	0.247564	0.71667	0.014639
177	C	0.216446	0.73912	0.01431
178	H	0.365825	0.822729	0.356075
179	C	0.163229	0.704065	0.006918
180	O	0.146826	0.705119	0.969391
181	O	0.140357	0.659552	0.024479
182	H	0.148544	0.652177	0.051153
183	C	0.239375	0.96317	0.020856
184	N	0.293466	0.990546	0.354245
185	C	0.32405	0.544349	0.354292
186	C	0.299595	0.575817	0.020685
187	N	0.245718	0.548715	0.02047
188	C	0.214564	0.994852	0.020561
189	H	0.364345	0.561046	0.354356
190	C	0.160566	0.975054	0.020861
191	O	0.14206	0.988852	0.99022
192	O	0.140105	0.967024	0.058459
193	C	0.495825	0.798649	0.352754
194	C	0.464516	0.743006	0.023354
195	N	0.490641	0.716143	0.03026
196	H	0.479353	0.822035	0.347748
197	C	0.213028	0.906818	0.35455
198	N	0.159115	0.877369	0.356343
199	C	0.131788	0.82353	0.357784
200	N	0.160877	0.799109	0.35594
201	C	0.214512	0.825025	0.353301
202	N	0.239838	0.879292	0.353291
203	C	0.327377	0.631943	0.353966
204	N	0.381314	0.660313	0.355574
205	C	0.4089	0.714338	0.355151
206	N	0.381211	0.740251	0.353406
207	C	0.327588	0.714263	0.352143
208	N	0.301392	0.660076	0.352335
209	C	0.241127	0.795505	0.35128
210	N	0.295082	0.822495	0.687124
211	C	0.325626	0.799299	0.686946
212	C	0.300969	0.743419	0.351334
213	N	0.247564	0.71667	0.347973
214	C	0.216446	0.73912	0.347644
215	H	0.365825	0.822729	0.68941
216	C	0.163229	0.704065	0.340252
217	O	0.146826	0.705119	0.302724
218	O	0.140357	0.659552	0.357814
219	H	0.148544	0.652177	0.384488
220	C	0.239375	0.96317	0.354188
221	N	0.293466	0.990546	0.687577
222	C	0.32405	0.544349	0.687624
223	C	0.299595	0.575817	0.35402
224	N	0.245718	0.548715	0.353805
225	C	0.214564	0.994852	0.353896
226	H	0.364345	0.561046	0.687691
227	C	0.160566	0.975054	0.354195
228	O	0.14206	0.988852	0.323555
229	O	0.140105	0.967024	0.391793
230	C	0.495825	0.798649	0.686086
231	C	0.464516	0.743006	0.356689
232	N	0.490641	0.716143	0.363592
233	H	0.479353	0.822035	0.681084
234	C	0.213028	0.906818	0.687883
235	N	0.159115	0.877369	0.689679
236	C	0.131788	0.82353	0.691119
237	N	0.160877	0.799109	0.689272
238	C	0.214512	0.825025	0.686637
239	N	0.239838	0.879292	0.686627
240	C	0.327377	0.631943	0.687298
241	N	0.381314	0.660313	0.688907
242	C	0.4089	0.714338	0.688483
243	N	0.381211	0.740251	0.686738
244	C	0.327588	0.714263	0.685475
245	N	0.301392	0.660076	0.68567
246	C	0.241127	0.795505	0.684616
247	N	0.295082	0.822495	0.020458
248	C	0.325626	0.799299	0.020277
249	C	0.300969	0.743419	0.68467
250	N	0.247564	0.71667	0.681306
251	C	0.216446	0.73912	0.680977
252	H	0.365825	0.822729	0.022742
253	C	0.163229	0.704065	0.673584
254	O	0.146826	0.705119	0.636059
255	O	0.140357	0.659552	0.691146
256	H	0.148544	0.652177	0.71782
257	C	0.239375	0.96317	0.687523
258	N	0.293466	0.990546	0.02091
259	C	0.32405	0.544349	0.020957
260	C	0.299595	0.575817	0.687352
261	N	0.245718	0.548715	0.687137
262	C	0.214564	0.994852	0.687228
263	H	0.364345	0.561046	0.021023
264	C	0.160566	0.975054	0.687527
265	O	0.14206	0.988852	0.656888
266	O	0.140105	0.967024	0.725125
267	C	0.495825	0.798649	0.019421
268	C	0.464516	0.743006	0.690021
269	N	0.490641	0.716143	0.696927
270	H	0.479353	0.822035	0.014416
271	C	0.713028	0.406819	0.021215
272	N	0.659116	0.37737	0.023008
273	C	0.631787	0.323529	0.024453
274	N	0.660876	0.299109	0.022615
275	C	0.714508	0.325023	0.019978
276	N	0.739835	0.379291	0.019963
277	C	0.827378	0.131944	0.020629
278	N	0.881313	0.160313	0.022231
279	C	0.9089	0.21434	0.021804
280	N	0.881213	0.240253	0.020058
281	C	0.827588	0.214263	0.018804
282	N	0.80139	0.160075	0.019002
283	C	0.741126	0.295503	0.01796
284	N	0.795081	0.322496	0.353785
285	C	0.825626	0.299298	0.3536
286	C	0.800969	0.243419	0.018001
287	N	0.747562	0.216668	0.014658
288	C	0.716442	0.239117	0.014337
289	H	0.865827	0.322731	0.356048
290	C	0.663222	0.204053	0.006977
291	O	0.646798	0.205064	0.969448
292	O	0.640362	0.159563	0.024575
293	H	0.648565	0.152219	0.051254
294	C	0.739375	0.463167	0.020853
295	N	0.793465	0.490546	0.354245
296	C	0.82405	0.044351	0.354285
297	C	0.799596	0.075818	0.020686
298	N	0.745717	0.048714	0.020477
299	C	0.714562	0.494849	0.020552
300	H	0.864346	0.061046	0.354349
301	C	0.660565	0.475051	0.020845
302	O	0.642065	0.488853	0.9902
303	O	0.640097	0.467025	0.058441
304	H	0.60661	0.458044	0.063231
305	C	0.575834	0.294279	0.026251
306	N	0.549392	0.321432	0.353812
307	C	0.995826	0.298649	0.352734
308	C	0.964516	0.243007	0.02334
309	N	0.990639	0.216144	0.030258
310	C	0.544138	0.238323	0.032199
311	H	0.979354	0.322035	0.347718
312	C	0.562376	0.204906	0.045173
313	O	0.539847	0.159456	0.030472
314	O	0.581811	0.212569	0.083268
315	H	0.59084	0.191254	0.096994
316	C	0.713028	0.406819	0.354547
317	N	0.659116	0.37737	0.356343
318	C	0.631787	0.323529	0.357787
319	N	0.660876	0.299109	0.355947
320	C	0.714508	0.325023	0.353312
321	N	0.739835	0.379291	0.353295
322	C	0.827378	0.131944	0.353963
323	N	0.881313	0.160313	0.355564
324	C	0.9089	0.21434	0.355138
325	N	0.881213	0.240253	0.353392
326	C	0.827588	0.214263	0.352136
327	N	0.80139	0.160075	0.352335
328	C	0.741126	0.295503	0.351294
329	N	0.795081	0.322496	0.687117
330	C	0.825626	0.299298	0.686932
331	C	0.800969	0.243419	0.351334
332	N	0.747562	0.216668	0.34799
333	C	0.716442	0.239117	0.347671
334	H	0.865827	0.322731	0.689383
335	C	0.663222	0.204053	0.340309
336	O	0.646798	0.205064	0.302781
337	O	0.640362	0.159563	0.357908
338	H	0.648565	0.152219	0.384588
339	C	0.739375	0.463167	0.354184
340	N	0.793465	0.490546	0.68758
341	C	0.82405	0.044351	0.687621
342	C	0.799596	0.075818	0.35402
343	N	0.745717	0.048714	0.353812
344	C	0.714562	0.494849	0.353886
345	H	0.864346	0.061046	0.687681
346	C	0.660565	0.475051	0.354178
347	O	0.642065	0.488853	0.323534
348	O	0.640097	0.467025	0.391773
349	H	0.60661	0.458044	0.396564
350	C	0.575834	0.294279	0.359586
351	N	0.549392	0.321432	0.687147
352	C	0.995826	0.298649	0.686066
353	C	0.964516	0.243007	0.356672
354	N	0.990639	0.216144	0.363592
355	C	0.544138	0.238323	0.365532
356	H	0.979354	0.322035	0.681054
357	C	0.562376	0.204906	0.378505
358	O	0.539847	0.159456	0.363807
359	O	0.581811	0.212569	0.416601
360	H	0.59084	0.191254	0.430329
361	C	0.713028	0.406819	0.687883
362	N	0.659116	0.37737	0.689675
363	C	0.631787	0.323529	0.691119
364	N	0.660876	0.299109	0.689283
365	C	0.714508	0.325023	0.686644
366	N	0.739835	0.379291	0.68663
367	C	0.827378	0.131944	0.687295
368	N	0.881313	0.160313	0.688896
369	C	0.9089	0.21434	0.68847
370	N	0.881213	0.240253	0.686724
371	C	0.827588	0.214263	0.685472
372	N	0.80139	0.160075	0.68567
373	C	0.741126	0.295503	0.684626
374	N	0.795081	0.322496	0.020451
375	C	0.825626	0.299298	0.020265
376	C	0.800969	0.243419	0.684666
377	N	0.747562	0.216668	0.681326
378	C	0.716442	0.239117	0.681003
379	H	0.865827	0.322731	0.022715
380	C	0.663222	0.204053	0.673644
381	O	0.646798	0.205064	0.636116
382	O	0.640362	0.159563	0.691243
383	H	0.648565	0.152219	0.717921
384	C	0.739375	0.463167	0.68752
385	N	0.793465	0.490546	0.020913
386	C	0.82405	0.044351	0.020953
387	C	0.799596	0.075818	0.687352
388	N	0.745717	0.048714	0.687144
389	C	0.714562	0.494849	0.687218
390	H	0.864346	0.061046	0.021015
391	C	0.660565	0.475051	0.687513
392	O	0.642065	0.488853	0.656868
393	O	0.640097	0.467025	0.725109
394	H	0.60661	0.458044	0.729896
395	C	0.575834	0.294279	0.692919
396	N	0.549392	0.321432	0.020479
397	C	0.995826	0.298649	0.0194
398	C	0.964516	0.243007	0.690008
399	N	0.990639	0.216144	0.696924
400	C	0.544138	0.238323	0.698868
401	H	0.979354	0.322035	0.014386
402	C	0.562376	0.204906	0.71184
403	O	0.539847	0.159456	0.697139
404	O	0.581811	0.212569	0.749936
405	H	0.59084	0.191254	0.763661
406	C	0.713028	0.906818	0.021216
407	N	0.659115	0.877369	0.023011
408	C	0.631788	0.82353	0.024452
409	N	0.660877	0.799109	0.022607
410	C	0.714512	0.825025	0.019969
411	N	0.739838	0.879292	0.019959
412	C	0.827375	0.631943	0.020632
413	N	0.881315	0.660313	0.022239
414	C	0.908901	0.714338	0.021818
415	N	0.88121	0.740251	0.020072
416	C	0.827586	0.714263	0.01881
417	N	0.801392	0.660076	0.019002
418	C	0.741127	0.795505	0.017948
419	N	0.795082	0.822495	0.353792
420	C	0.825625	0.799299	0.35361
421	C	0.800971	0.743419	0.018002
422	N	0.747564	0.71667	0.014639
423	C	0.716446	0.73912	0.01431
424	H	0.865824	0.822729	0.356075
425	C	0.663229	0.704065	0.006918
426	O	0.646826	0.705119	0.969391
427	O	0.640357	0.659552	0.024479
428	H	0.648544	0.652177	0.051153
429	C	0.739375	0.96317	0.020856
430	N	0.793466	0.990546	0.354245
431	C	0.824051	0.544349	0.354292
432	C	0.799594	0.575817	0.020685
433	N	0.745719	0.548715	0.02047
434	C	0.714564	0.994852	0.020561
435	H	0.864345	0.561046	0.354356
436	C	0.660566	0.975054	0.020861
437	O	0.64206	0.988852	0.99022
438	O	0.640104	0.967024	0.058459
439	H	0.606618	0.958043	0.063254
440	C	0.575834	0.794275	0.026254
441	N	0.549394	0.821433	0.353829
442	C	0.995824	0.798649	0.352754
443	C	0.964517	0.743006	0.023354
444	N	0.99064	0.716143	0.03026
445	C	0.544139	0.73832	0.032195
446	H	0.979352	0.822035	0.347748
447	C	0.562383	0.704901	0.045149
448	O	0.539849	0.659453	0.030437
449	O	0.581827	0.71255	0.08324
450	H	0.590863	0.691234	0.096953
451	C	0.713028	0.906818	0.35455
452	N	0.659115	0.877369	0.356343
453	C	0.631788	0.82353	0.357784
454	N	0.660877	0.799109	0.35594
455	C	0.714512	0.825025	0.353301
456	N	0.739838	0.879292	0.353291
457	C	0.827375	0.631943	0.353966
458	N	0.881315	0.660313	0.355574
459	C	0.908901	0.714338	0.355151
460	N	0.88121	0.740251	0.353406
461	C	0.827586	0.714263	0.352143
462	N	0.801392	0.660076	0.352335
463	C	0.741127	0.795505	0.35128
464	N	0.795082	0.822495	0.687124
465	C	0.825625	0.799299	0.686946
466	C	0.800971	0.743419	0.351334
467	N	0.747564	0.71667	0.347973
468	C	0.716446	0.73912	0.347644
469	H	0.865824	0.822729	0.68941
470	C	0.663229	0.704065	0.340252
471	O	0.646826	0.705119	0.302724
472	O	0.640357	0.659552	0.357814
473	H	0.648544	0.652177	0.384488
474	C	0.739375	0.96317	0.354188
475	N	0.793466	0.990546	0.687577
476	C	0.824051	0.544349	0.687624
477	C	0.799594	0.575817	0.35402
478	N	0.745719	0.548715	0.353805
479	C	0.714564	0.994852	0.353896
480	H	0.864345	0.561046	0.687691
481	C	0.660566	0.975054	0.354195
482	O	0.64206	0.988852	0.323555
483	O	0.640104	0.967024	0.391793
484	H	0.606618	0.958043	0.396587
485	C	0.575834	0.794275	0.359586
486	N	0.549394	0.821433	0.687161
487	C	0.995824	0.798649	0.686086
488	C	0.964517	0.743006	0.356689
489	N	0.99064	0.716143	0.363592
490	C	0.544139	0.73832	0.365529
491	H	0.979352	0.822035	0.681084
492	C	0.562383	0.704901	0.378481
493	O	0.539849	0.659453	0.36377
494	O	0.581827	0.71255	0.416574
495	H	0.590863	0.691234	0.430285
496	C	0.713028	0.906818	0.687883
497	N	0.659115	0.877369	0.689679
498	C	0.631788	0.82353	0.691119
499	N	0.660877	0.799109	0.689272
500	C	0.714512	0.825025	0.686637
501	N	0.739838	0.879292	0.686627
502	C	0.827375	0.631943	0.687298
503	N	0.881315	0.660313	0.688907
504	C	0.908901	0.714338	0.688483
505	N	0.88121	0.740251	0.686738
506	C	0.827586	0.714263	0.685475
507	N	0.801392	0.660076	0.68567
508	C	0.741127	0.795505	0.684616
509	N	0.795082	0.822495	0.020458
510	C	0.825625	0.799299	0.020277
511	C	0.800971	0.743419	0.68467
512	N	0.747564	0.71667	0.681306
513	C	0.716446	0.73912	0.680977
514	H	0.865824	0.822729	0.022742
515	C	0.663229	0.704065	0.673584
516	O	0.646826	0.705119	0.636059
517	O	0.640357	0.659552	0.691146
518	H	0.648544	0.652177	0.71782
519	C	0.739375	0.96317	0.687523
520	N	0.793466	0.990546	0.02091
521	C	0.824051	0.544349	0.020957
522	C	0.799594	0.575817	0.687352
523	N	0.745719	0.548715	0.687137
524	C	0.714564	0.994852	0.687228
525	H	0.864345	0.561046	0.021023
526	C	0.660566	0.975054	0.687527
527	O	0.64206	0.988852	0.656888
528	O	0.640104	0.967024	0.725125
529	H	0.606618	0.958043	0.72992
530	C	0.575834	0.794275	0.692922
531	N	0.549394	0.821433	0.020494
532	C	0.995824	0.798649	0.019421
533	C	0.964517	0.743006	0.690021
534	N	0.99064	0.716143	0.696927
535	C	0.544139	0.73832	0.698861
536	H	0.979352	0.822035	0.014416
537	C	0.562383	0.704901	0.711817
538	O	0.539849	0.659453	0.697105
539	O	0.581827	0.71255	0.749906
540	H	0.590863	0.691234	0.76362
