data_C180H72N108O72_2018-02-15_10:45:33
#******************************************
#
# CIF file created by Zeo++
# Zeo++ is an open source package to
# analyze microporous materials
#
#*******************************************

_cell_length_a		34.1653   
_cell_length_b		34.1652   
_cell_length_c		29.014   
_cell_angle_alpha		90   
_cell_angle_beta		90   
_cell_angle_gamma		120   

_symmetry_space_group_name_H-M		'P1'
_symmetry_Int_Tables_number		1
_symmetry_cell_setting		Monoclinic

loop_
_symmetry_equiv_pos_as_xyz
'+x,+y,+z'

loop_
_atom_site_label
_atom_site_type_symbol
_atom_site_fract_x
_atom_site_fract_y
_atom_site_fract_z
1	C	0.067019	0.040718	0.017336
2	N	0.040487	0.060031	0.017396
3	C	0.994413	0.034814	0.017405
4	N	0.967301	0.052611	0.017587
5	N	0.111926	0.067832	0.017451
6	C	0.212799	0.10639	0.059643
7	H	0.195255	0.094358	0.08983
8	C	0.928632	0.114671	0.059613
9	H	0.940593	0.108996	0.089761
10	C	0.407618	0.202773	0.021809
11	N	0.433241	0.182267	0.021454
12	C	0.479252	0.207187	0.021024
13	N	0.362601	0.176397	0.021829
14	N	0.508701	0.192959	0.02002
15	C	0.760492	0.209051	0.020473
16	N	0.786062	0.188633	0.021565
17	N	0.858741	0.194698	0.021673
18	N	0.715248	0.186386	0.021397
19	C	0.28523	0.153608	0.020395
20	C	0.26002	0.13734	0.061795
21	N	0.282554	0.152268	0.104665
22	C	0.330912	0.186444	0.020482
23	C	0.881504	0.140087	0.020527
24	C	0.897677	0.130929	0.06187
25	N	0.882664	0.138327	0.104791
26	C	0.848678	0.152948	0.020737
27	H	0.816491	0.128549	0.019778
28	C	0.551512	0.158938	0.020538
29	C	0.579415	0.166297	0.059763
30	C	0.624319	0.175585	0.053492
31	H	0.644853	0.183554	0.081818
32	N	0.566555	0.167979	0.105799
33	O	0.559002	0.200009	0.112048
34	O	0.532336	0.13158	0.117609
35	C	0.509638	0.156085	0.023898
36	H	0.481826	0.12675	0.029888
37	O	0.862217	0.102385	0.127682
38	C	0.189597	0.091734	0.017175
39	O	0.279059	0.119808	0.128235
40	O	0.267129	0.172678	0.127729
41	O	0.915077	0.167187	0.128488
42	N	0.498971	0.252602	0.02065
43	C	0.475204	0.274647	0.020568
44	N	0.429217	0.24908	0.021639
45	N	0.497794	0.319892	0.021458
46	C	0.832368	0.21334	0.021693
47	N	0.852873	0.259467	0.021262
48	C	0.827953	0.280558	0.020815
49	N	0.782537	0.254861	0.020482
50	N	0.842184	0.324235	0.019738
51	H	0.338699	0.218617	0.019049
52	C	0.876198	0.401062	0.020508
53	C	0.868791	0.42158	0.059731
54	C	0.859444	0.457159	0.05347
55	H	0.851505	0.469725	0.081818
56	N	0.867097	0.407024	0.105765
57	O	0.835101	0.36742	0.111988
58	O	0.903517	0.409261	0.117601
59	C	0.879034	0.362032	0.023865
60	H	0.908275	0.363526	0.030368
61	C	0.613474	0.455675	0.059787
62	C	0.577908	0.410752	0.053497
63	H	0.56521	0.39025	0.08183
64	N	0.627911	0.468586	0.10584
65	O	0.66752	0.476251	0.112185
66	C	0.189597	0.091734	0.350507
67	C	0.214787	0.10808	0.309104
68	N	0.192249	0.093176	0.266224
69	O	0.207689	0.072818	0.243098
70	C	0.14409	0.058447	0.350324
71	H	0.136816	0.026405	0.349669
72	C	0.943411	0.106391	0.350417
73	C	0.927177	0.115468	0.30907
74	N	0.942173	0.108048	0.266143
75	O	0.909766	0.079128	0.242481
76	C	0.976688	0.094156	0.350141
77	H	0.008722	0.118911	0.349069
78	C	0.067019	0.040718	0.350669
79	N	0.040487	0.060031	0.350731
80	C	0.994413	0.034814	0.350737
81	N	0.967301	0.052611	0.35092
82	N	0.111926	0.067832	0.350786
83	C	0.212799	0.10639	0.392976
84	H	0.195255	0.094358	0.423165
85	C	0.928632	0.114671	0.392945
86	H	0.940593	0.108996	0.423096
87	O	0.862217	0.102385	0.461015
88	C	0.943411	0.106391	0.017084
89	C	0.261999	0.139054	0.31126
90	H	0.279553	0.151012	0.281066
91	O	0.195676	0.125635	0.2427
92	C	0.896198	0.131695	0.311333
93	H	0.884313	0.137457	0.28118
94	O	0.962578	0.143958	0.243198
95	C	0.642879	0.17901	0.342415
96	C	0.61505	0.171805	0.303325
97	C	0.569567	0.160932	0.309547
98	H	0.550491	0.157476	0.280957
99	N	0.633853	0.177783	0.258537
100	O	0.613258	0.142434	0.234805
101	C	0.689513	0.200374	0.337493
102	C	0.407618	0.202773	0.355142
103	N	0.433241	0.182267	0.354787
104	C	0.479252	0.207187	0.354356
105	N	0.362601	0.176397	0.355163
106	N	0.508701	0.192959	0.353353
107	C	0.760492	0.209051	0.353805
108	N	0.786062	0.188633	0.354898
109	N	0.858741	0.194698	0.355008
110	N	0.715248	0.186386	0.354732
111	C	0.28523	0.153608	0.353729
112	C	0.26002	0.13734	0.39513
113	N	0.282554	0.152268	0.437999
114	O	0.279059	0.119808	0.461567
115	O	0.267129	0.172678	0.461064
116	C	0.330912	0.186444	0.353815
117	C	0.881504	0.140087	0.35386
118	C	0.897677	0.130929	0.395206
119	N	0.882664	0.138327	0.438123
120	O	0.915077	0.167187	0.461822
121	C	0.848678	0.152948	0.35407
122	H	0.816491	0.128549	0.353112
123	C	0.551512	0.158938	0.35387
124	C	0.579415	0.166297	0.393096
125	C	0.624319	0.175585	0.386827
126	H	0.644853	0.183554	0.415151
127	N	0.566555	0.167979	0.439133
128	O	0.559002	0.200009	0.445381
129	O	0.532336	0.13158	0.450941
130	C	0.509638	0.156085	0.357231
131	H	0.481826	0.12675	0.363221
132	O	0.633224	0.209617	0.237468
133	H	0.703618	0.230049	0.321241
134	C	0.856084	0.472327	0.342388
135	C	0.863286	0.451724	0.303296
136	C	0.874129	0.417095	0.309519
137	H	0.877656	0.401518	0.280932
138	N	0.857314	0.464578	0.258523
139	O	0.825476	0.432125	0.237446
140	C	0.562819	0.392241	0.342406
141	C	0.583454	0.420029	0.303304
142	C	0.618087	0.465493	0.309557
143	N	0.570638	0.401234	0.258511
144	O	0.555931	0.421864	0.234769
145	O	0.603105	0.401846	0.237464
146	C	0.53749	0.345597	0.337478
147	H	0.553011	0.33146	0.321195
148	N	0.498971	0.252602	0.353984
149	C	0.475204	0.274647	0.353901
150	N	0.429217	0.24908	0.354973
151	N	0.497794	0.319892	0.354791
152	C	0.832368	0.21334	0.355025
153	N	0.852873	0.259467	0.354594
154	C	0.827953	0.280558	0.35415
155	N	0.782537	0.254861	0.353815
156	N	0.842184	0.324235	0.353071
157	H	0.338699	0.218617	0.352382
158	C	0.876198	0.401062	0.353839
159	C	0.868791	0.42158	0.393065
160	C	0.859444	0.457159	0.386803
161	H	0.851505	0.469725	0.415151
162	N	0.867097	0.407024	0.439098
163	O	0.835101	0.36742	0.445319
164	O	0.903517	0.409261	0.450934
165	C	0.879034	0.362032	0.3572
166	H	0.908275	0.363526	0.3637
167	C	0.613474	0.455675	0.39312
168	C	0.577908	0.410752	0.38683
169	H	0.56521	0.39025	0.415162
170	N	0.627911	0.468586	0.439174
171	O	0.66752	0.476251	0.445519
172	C	0.000316	0.968114	0.017358
173	N	0.046161	0.994645	0.017344
174	N	0.9751	0.98897	0.017424
175	N	0.982522	0.923207	0.017452
176	C	0.821768	0.627512	0.021757
177	N	0.775638	0.601894	0.02136
178	C	0.754545	0.555885	0.020867
179	N	0.780241	0.536164	0.020474
180	C	0.82605	0.559924	0.02044
181	N	0.84647	0.605909	0.021569
182	N	0.840413	0.67253	0.021808
183	N	0.848717	0.53734	0.021339
184	N	0.71087	0.526441	0.019796
185	C	0.894997	0.7499	0.020382
186	C	0.903899	0.775079	0.061802
187	C	0.920169	0.822301	0.059685
188	H	0.925649	0.839818	0.089886
189	N	0.896259	0.752512	0.104657
190	C	0.882149	0.704219	0.020449
191	H	0.906531	0.696429	0.01897
192	C	0.634045	0.483589	0.020567
193	O	0.6256	0.502752	0.117572
194	C	0.673061	0.525467	0.023942
195	H	0.671549	0.553198	0.030472
196	O	0.867275	0.755987	0.128212
197	O	0.932078	0.767924	0.127748
198	C	0.928754	0.845537	0.017233
199	C	0.928754	0.845537	0.350565
200	C	0.919943	0.820381	0.309144
201	C	0.903706	0.773166	0.311266
202	H	0.898136	0.755639	0.28106
203	N	0.927607	0.842955	0.266283
204	O	0.956652	0.839544	0.242766
205	O	0.891822	0.827529	0.243135
206	C	0.940973	0.891042	0.350438
207	H	0.9162	0.898315	0.349917
208	O	0.892663	0.479323	0.234791
209	C	0.834654	0.497547	0.337589
210	H	0.804938	0.481943	0.321412
211	H	0.633699	0.484606	0.280984
212	C	0.000316	0.968114	0.350693
213	N	0.046161	0.994645	0.350679
214	N	0.9751	0.98897	0.350758
215	N	0.982522	0.923207	0.350786
216	C	0.821768	0.627512	0.355091
217	N	0.775638	0.601894	0.354694
218	C	0.754545	0.555885	0.354201
219	N	0.780241	0.536164	0.353808
220	C	0.82605	0.559924	0.353774
221	N	0.84647	0.605909	0.354901
222	N	0.840413	0.67253	0.355142
223	N	0.848717	0.53734	0.354674
224	N	0.71087	0.526441	0.353129
225	C	0.894997	0.7499	0.353715
226	C	0.903899	0.775079	0.395133
227	C	0.920169	0.822301	0.393021
228	H	0.925649	0.839818	0.42322
229	N	0.896259	0.752512	0.437992
230	O	0.867275	0.755987	0.461546
231	O	0.932078	0.767924	0.461081
232	C	0.882149	0.704219	0.353784
233	H	0.906531	0.696429	0.352302
234	C	0.634045	0.483589	0.353901
235	O	0.6256	0.502752	0.450906
236	C	0.673061	0.525467	0.357276
237	H	0.671549	0.553198	0.363804
238	C	0.940973	0.891042	0.017104
239	C	0.189597	0.091734	0.683842
240	C	0.214787	0.10808	0.642438
241	N	0.192249	0.093176	0.599559
242	O	0.207689	0.072818	0.576432
243	C	0.14409	0.058447	0.683656
244	H	0.136816	0.026405	0.683001
245	C	0.943411	0.106391	0.683753
246	C	0.927177	0.115468	0.642404
247	N	0.942173	0.108048	0.599476
248	O	0.909766	0.079128	0.575815
249	C	0.976688	0.094156	0.683477
250	H	0.008722	0.118911	0.682401
251	C	0.067019	0.040718	0.684004
252	N	0.040487	0.060031	0.684063
253	C	0.994413	0.034814	0.684073
254	N	0.967301	0.052611	0.684252
255	N	0.111926	0.067832	0.684118
256	C	0.214787	0.10808	0.97577
257	C	0.212799	0.10639	0.726308
258	H	0.195255	0.094358	0.756497
259	N	0.192249	0.093176	0.932891
260	O	0.207689	0.072818	0.909764
261	C	0.14409	0.058447	0.016992
262	H	0.136816	0.026405	0.016333
263	C	0.927177	0.115468	0.975736
264	C	0.928632	0.114671	0.72628
265	H	0.940593	0.108996	0.756428
266	N	0.942173	0.108048	0.932808
267	O	0.909766	0.079128	0.909147
268	O	0.862217	0.102385	0.794351
269	C	0.976688	0.094156	0.016809
270	H	0.008722	0.118911	0.015734
271	C	0.261999	0.139054	0.644592
272	H	0.279553	0.151012	0.6144
273	O	0.195676	0.125635	0.576032
274	C	0.896198	0.131695	0.644668
275	H	0.884313	0.137457	0.614514
276	O	0.962578	0.143958	0.576532
277	C	0.642879	0.17901	0.675749
278	C	0.61505	0.171805	0.636658
279	C	0.569567	0.160932	0.642879
280	H	0.550491	0.157476	0.61429
281	N	0.633853	0.177783	0.591869
282	O	0.613258	0.142434	0.568139
283	C	0.689513	0.200374	0.670828
284	C	0.407618	0.202773	0.688474
285	N	0.433241	0.182267	0.688119
286	C	0.479252	0.207187	0.687692
287	N	0.362601	0.176397	0.688495
288	N	0.508701	0.192959	0.686686
289	C	0.760492	0.209051	0.687141
290	N	0.786062	0.188633	0.688233
291	N	0.858741	0.194698	0.68834
292	N	0.715248	0.186386	0.688064
293	C	0.261999	0.139054	0.977928
294	C	0.28523	0.153608	0.687061
295	C	0.26002	0.13734	0.728462
296	H	0.279553	0.151012	0.947732
297	N	0.282554	0.152268	0.771331
298	O	0.279059	0.119808	0.794902
299	O	0.195676	0.125635	0.909368
300	O	0.267129	0.172678	0.794396
301	C	0.330912	0.186444	0.687147
302	C	0.896198	0.131695	0.978
303	C	0.881504	0.140087	0.687192
304	C	0.897677	0.130929	0.728538
305	H	0.884313	0.137457	0.947846
306	N	0.882664	0.138327	0.771458
307	O	0.915077	0.167187	0.795154
308	O	0.962578	0.143958	0.909864
309	C	0.848678	0.152948	0.687406
310	H	0.816491	0.128549	0.686444
311	C	0.551512	0.158938	0.687206
312	C	0.579415	0.166297	0.726428
313	C	0.624319	0.175585	0.720159
314	C	0.642879	0.17901	0.009082
315	C	0.61505	0.171805	0.96999
316	H	0.644853	0.183554	0.748483
317	C	0.569567	0.160932	0.976215
318	H	0.550491	0.157476	0.947625
319	N	0.633853	0.177783	0.925205
320	N	0.566555	0.167979	0.772465
321	O	0.613258	0.142434	0.901471
322	O	0.559002	0.200009	0.778714
323	O	0.532336	0.13158	0.784276
324	C	0.509638	0.156085	0.690566
325	H	0.481826	0.12675	0.696553
326	C	0.689513	0.200374	0.00416
327	O	0.633224	0.209617	0.5708
328	H	0.703618	0.230049	0.654573
329	C	0.856084	0.472327	0.675722
330	C	0.863286	0.451724	0.63663
331	C	0.874129	0.417095	0.642852
332	H	0.877656	0.401518	0.614265
333	N	0.857314	0.464578	0.591856
334	O	0.825476	0.432125	0.570779
335	C	0.562819	0.392241	0.675739
336	C	0.583454	0.420029	0.636637
337	C	0.618087	0.465493	0.642889
338	N	0.570638	0.401234	0.591845
339	O	0.555931	0.421864	0.568101
340	O	0.603105	0.401846	0.570797
341	C	0.53749	0.345597	0.67081
342	H	0.553011	0.33146	0.654529
343	N	0.498971	0.252602	0.687316
344	C	0.475204	0.274647	0.687234
345	N	0.429217	0.24908	0.688305
346	N	0.497794	0.319892	0.688126
347	C	0.832368	0.21334	0.688361
348	N	0.852873	0.259467	0.68793
349	C	0.827953	0.280558	0.687482
350	N	0.782537	0.254861	0.687147
351	N	0.842184	0.324235	0.686406
352	H	0.338699	0.218617	0.685717
353	O	0.633224	0.209617	0.904136
354	H	0.703618	0.230049	0.987909
355	C	0.876198	0.401062	0.687175
356	C	0.868791	0.42158	0.726397
357	C	0.859444	0.457159	0.720138
358	C	0.856084	0.472327	0.009054
359	C	0.863286	0.451724	0.969963
360	H	0.851505	0.469725	0.748483
361	C	0.874129	0.417095	0.976187
362	H	0.877656	0.401518	0.947597
363	N	0.857314	0.464578	0.925191
364	N	0.867097	0.407024	0.77243
365	O	0.835101	0.36742	0.778655
366	O	0.903517	0.409261	0.784266
367	O	0.825476	0.432125	0.904112
368	C	0.879034	0.362032	0.690532
369	H	0.908275	0.363526	0.697036
370	C	0.613474	0.455675	0.726453
371	C	0.577908	0.410752	0.720163
372	C	0.562819	0.392241	0.009071
373	C	0.583454	0.420029	0.969969
374	H	0.56521	0.39025	0.748497
375	C	0.618087	0.465493	0.976225
376	N	0.570638	0.401234	0.925177
377	N	0.627911	0.468586	0.772506
378	O	0.555931	0.421864	0.901437
379	O	0.66752	0.476251	0.778851
380	O	0.603105	0.401846	0.904132
381	C	0.53749	0.345597	0.004146
382	H	0.553011	0.33146	0.987861
383	C	0.928754	0.845537	0.683901
384	C	0.919943	0.820381	0.642476
385	C	0.903706	0.773166	0.644599
386	H	0.898136	0.755639	0.614393
387	N	0.927607	0.842955	0.599617
388	O	0.956652	0.839544	0.576101
389	O	0.891822	0.827529	0.57647
390	C	0.940973	0.891042	0.68377
391	H	0.9162	0.898315	0.683253
392	O	0.892663	0.479323	0.568126
393	C	0.834654	0.497547	0.670921
394	H	0.804938	0.481943	0.654746
395	H	0.633699	0.484606	0.614317
396	C	0.000316	0.968114	0.684025
397	N	0.046161	0.994645	0.684011
398	N	0.9751	0.98897	0.68409
399	N	0.982522	0.923207	0.684118
400	C	0.821768	0.627512	0.688423
401	N	0.775638	0.601894	0.688026
402	C	0.754545	0.555885	0.687533
403	N	0.780241	0.536164	0.687141
404	C	0.82605	0.559924	0.687106
405	N	0.84647	0.605909	0.688237
406	N	0.840413	0.67253	0.688474
407	N	0.848717	0.53734	0.688006
408	N	0.71087	0.526441	0.686462
409	C	0.919943	0.820381	0.975811
410	C	0.903706	0.773166	0.977935
411	C	0.894997	0.7499	0.687047
412	C	0.903899	0.775079	0.728469
413	H	0.898136	0.755639	0.947728
414	C	0.920169	0.822301	0.726353
415	H	0.925649	0.839818	0.756552
416	N	0.896259	0.752512	0.771324
417	N	0.927607	0.842955	0.932949
418	O	0.867275	0.755987	0.794878
419	O	0.956652	0.839544	0.909433
420	O	0.891822	0.827529	0.909802
421	O	0.932078	0.767924	0.794416
422	H	0.9162	0.898315	0.016585
423	C	0.882149	0.704219	0.687116
424	H	0.906531	0.696429	0.685638
425	O	0.892663	0.479323	0.901458
426	C	0.834654	0.497547	0.004256
427	H	0.804938	0.481943	0.988078
428	C	0.634045	0.483589	0.687234
429	H	0.633699	0.484606	0.947653
430	O	0.6256	0.502752	0.784238
431	C	0.673061	0.525467	0.690608
432	H	0.671549	0.553198	0.697139
