data_C252H180N72_2018-02-15_10:37:02
#******************************************
#
# CIF file created by Zeo++
# Zeo++ is an open source package to
# analyze microporous materials
#
#*******************************************

_cell_length_a		34.1816   
_cell_length_b		34.1839   
_cell_length_c		29.6386   
_cell_angle_alpha		90   
_cell_angle_beta		90   
_cell_angle_gamma		120.007   

_symmetry_space_group_name_H-M		'P1'
_symmetry_Int_Tables_number		1
_symmetry_cell_setting		Monoclinic

loop_
_symmetry_equiv_pos_as_xyz
'+x,+y,+z'

loop_
_atom_site_label
_atom_site_type_symbol
_atom_site_fract_x
_atom_site_fract_y
_atom_site_fract_z
1	C	0.982864	0.95739	0.998623
2	N	0.960376	0.981	0.998585
3	C	0.981502	0.027049	0.998488
4	N	0.0276	0.049531	0.998602
5	C	0.052531	0.028421	0.998629
6	N	0.028911	0.982324	0.998744
7	C	0.464536	0.260254	0.011331
8	N	0.418446	0.238077	0.009292
9	C	0.393376	0.191921	0.005384
10	N	0.416034	0.168383	0.002482
11	C	0.46193	0.189705	0.002864
12	N	0.484833	0.235063	0.007527
13	C	0.749986	0.207434	0.011174
14	N	0.77214	0.183507	0.009119
15	C	0.818295	0.204586	0.005188
16	N	0.841858	0.250788	0.00228
17	C	0.820551	0.275371	0.002695
18	N	0.77519	0.252921	0.007373
19	C	0.802724	0.545695	0.010966
20	N	0.826673	0.591783	0.008981
21	C	0.805595	0.616863	0.005209
22	N	0.759384	0.594256	0.002401
23	C	0.734786	0.548361	0.002715
24	N	0.757229	0.525433	0.007252
25	C	0.344914	0.168354	0.005107
26	C	0.320034	0.188713	0.323769
27	N	0.274151	0.164928	0.323785
28	C	0.247471	0.121496	0.004679
29	C	0.270934	0.099234	0.020601
30	C	0.319002	0.123066	0.019934
31	H	0.335745	0.10727	0.031598
32	C	0.198717	0.102049	0.335823
33	C	0.174358	0.126087	0.336836
34	C	0.126264	0.101173	0.335275
35	C	0.101143	0.05341	0.332549
36	C	0.127115	0.031801	0.997381
37	N	0.172877	0.056298	0.99897
38	H	0.108955	0.118402	0.336476
39	H	0.112207	0.997468	0.995134
40	H	0.33592	0.221164	0.31204
41	C	0.196872	0.176157	0.340792
42	H	0.216355	0.191886	0.310335
43	H	0.219273	0.187599	0.370034
44	H	0.172978	0.188287	0.344986
45	C	0.247626	0.052633	0.039621
46	H	0.224123	0.049866	0.066028
47	H	0.270919	0.043203	0.054661
48	H	0.229246	0.028209	0.01301
49	C	0.841818	0.17966	0.004898
50	C	0.821471	0.134479	0.323368
51	N	0.845202	0.112331	0.323392
52	C	0.888566	0.128999	0.004476
53	C	0.910811	0.174652	0.020596
54	C	0.887038	0.198939	0.019917
55	H	0.902813	0.231428	0.031727
56	C	0.907981	0.099682	0.335614
57	C	0.88391	0.051291	0.336822
58	C	0.908782	0.028079	0.335252
59	C	0.956535	0.050692	0.332334
60	C	0.978173	0.098273	0.996969
61	N	0.953718	0.119576	0.998572
62	H	0.891534	0.993546	0.336615
63	H	0.012498	0.117672	0.994577
64	H	0.789071	0.117996	0.311494
65	C	0.833852	0.0238	0.341031
66	H	0.817991	0.027406	0.310603
67	H	0.822576	0.034948	0.370257
68	H	0.821706	0.987793	0.345414
69	C	0.957313	0.197781	0.039858
70	H	0.95991	0.176861	0.066171
71	H	0.9667	0.23042	0.05508
72	H	0.981869	0.203961	0.013346
73	C	0.830539	0.665302	0.005033
74	C	0.87544	0.690152	0.322681
75	N	0.897642	0.73604	0.322829
76	C	0.881198	0.762626	0.004837
77	C	0.835892	0.739239	0.021829
78	C	0.811556	0.691189	0.02102
79	H	0.779308	0.674453	0.033467
80	C	0.910366	0.811319	0.336005
81	C	0.958695	0.835655	0.338177
82	C	0.981882	0.883729	0.336489
83	C	0.959254	0.908785	0.332575
84	C	0.911714	0.882773	0.996335
85	N	0.890398	0.837006	0.998039
86	H	0.01638	0.901056	0.338572
87	H	0.892348	0.897668	0.993174
88	H	0.891643	0.67423	0.310091
89	C	0.986017	0.813048	0.34366
90	H	0.983241	0.793675	0.313399
91	H	0.974026	0.790506	0.372784
92	H	0.021886	0.836905	0.34897
93	C	0.813366	0.762714	0.042212
94	H	0.835022	0.786307	0.068119
95	H	0.781145	0.739499	0.058213
96	H	0.806504	0.781044	0.016194
97	C	0.488768	0.169112	0.331647
98	C	0.498508	0.150612	0.036254
99	N	0.537227	0.148645	0.037369
100	C	0.567287	0.1609	0.336034
101	C	0.558305	0.178026	0.29592
102	C	0.518891	0.181808	0.294719
103	H	0.514044	0.197755	0.267788
104	C	0.610882	0.167558	0.012997
105	C	0.641344	0.203372	0.04156
106	C	0.686786	0.213403	0.042783
107	C	0.702609	0.189481	0.016574
108	C	0.670121	0.152741	0.324332
109	N	0.626717	0.144183	0.322567
110	H	0.709489	0.240323	0.061705
111	H	0.679515	0.135083	0.30346
112	H	0.480306	0.144355	0.065378
113	C	0.628039	0.232405	0.067214
114	H	0.614877	0.247957	0.044154
115	H	0.656242	0.259535	0.085614
116	H	0.601998	0.211976	0.09181
117	C	0.589788	0.197015	0.256911
118	H	0.620004	0.194274	0.260306
119	H	0.600589	0.232773	0.252952
120	H	0.572456	0.17919	0.226153
121	C	0.84113	0.322788	0.331417
122	C	0.859534	0.351047	0.036043
123	N	0.861478	0.39172	0.037146
124	C	0.849265	0.409522	0.335784
125	C	0.832226	0.383426	0.295655
126	C	0.828489	0.34025	0.29448
127	H	0.812585	0.319459	0.267533
128	C	0.842575	0.446445	0.012716
129	C	0.806774	0.441091	0.041296
130	C	0.796742	0.476497	0.042524
131	C	0.820653	0.516251	0.01632
132	C	0.857372	0.520494	0.324043
133	N	0.865933	0.485656	0.322274
134	H	0.769838	0.472278	0.06147
135	H	0.875026	0.54755	0.30317
136	H	0.865763	0.339115	0.06519
137	C	0.777753	0.39876	0.06697
138	H	0.762204	0.370028	0.043925
139	H	0.750618	0.399824	0.085364
140	H	0.79819	0.393172	0.091574
141	C	0.813268	0.395898	0.256605
142	H	0.815958	0.428832	0.259989
143	H	0.777527	0.370903	0.252588
144	H	0.831158	0.396435	0.22588
145	C	0.687333	0.521511	0.331558
146	C	0.659231	0.511762	0.036278
147	N	0.618552	0.473028	0.037434
148	C	0.600647	0.443006	0.336073
149	C	0.626636	0.452053	0.295859
150	C	0.66983	0.491486	0.29458
151	H	0.690558	0.496378	0.267578
152	C	0.563744	0.399388	0.013059
153	C	0.569172	0.368937	0.041561
154	C	0.533777	0.32349	0.042816
155	C	0.49397	0.307639	0.016694
156	C	0.489643	0.340115	0.324515
157	N	0.52447	0.383528	0.322721
158	H	0.538051	0.300805	0.061701
159	H	0.462535	0.330704	0.30371
160	H	0.671266	0.529923	0.065413
161	C	0.611576	0.382264	0.067116
162	H	0.64025	0.395462	0.043999
163	H	0.61056	0.354063	0.085459
164	H	0.617214	0.408279	0.091752
165	C	0.614039	0.42062	0.256799
166	H	0.581104	0.390378	0.260249
167	H	0.639011	0.40986	0.252673
168	H	0.613427	0.437973	0.226106
169	C	0.982864	0.95739	0.331956
170	N	0.960376	0.981	0.331917
171	C	0.981502	0.027049	0.33182
172	N	0.0276	0.049531	0.331935
173	C	0.052531	0.028421	0.331963
174	N	0.028911	0.982324	0.332078
175	C	0.464536	0.260254	0.344665
176	N	0.418446	0.238077	0.342624
177	C	0.393376	0.191921	0.338717
178	N	0.416034	0.168383	0.335815
179	C	0.46193	0.189705	0.336195
180	N	0.484833	0.235063	0.340859
181	C	0.749986	0.207434	0.344507
182	N	0.77214	0.183507	0.342452
183	C	0.818295	0.204586	0.338521
184	N	0.841858	0.250788	0.335613
185	C	0.820551	0.275371	0.336027
186	N	0.77519	0.252921	0.340707
187	C	0.802724	0.545695	0.344301
188	N	0.826673	0.591783	0.342313
189	C	0.805595	0.616863	0.338541
190	N	0.759384	0.594256	0.335736
191	C	0.734786	0.548361	0.336046
192	N	0.757229	0.525433	0.340586
193	C	0.344914	0.168354	0.33844
194	C	0.320034	0.188713	0.657102
195	N	0.274151	0.164928	0.657119
196	C	0.247471	0.121496	0.338012
197	C	0.270934	0.099234	0.353933
198	C	0.319002	0.123066	0.353269
199	H	0.335745	0.10727	0.364933
200	C	0.198717	0.102049	0.669157
201	C	0.174358	0.126087	0.670169
202	C	0.126264	0.101173	0.668607
203	C	0.101143	0.05341	0.665881
204	C	0.127115	0.031801	0.330714
205	N	0.172877	0.056298	0.332304
206	H	0.108955	0.118402	0.669808
207	H	0.112207	0.997468	0.328465
208	H	0.33592	0.221164	0.645374
209	C	0.196872	0.176157	0.674124
210	H	0.216355	0.191886	0.64367
211	H	0.219273	0.187599	0.703369
212	H	0.172978	0.188287	0.678321
213	C	0.247626	0.052633	0.372956
214	H	0.224123	0.049866	0.399361
215	H	0.270919	0.043203	0.387994
216	H	0.229246	0.028209	0.346342
217	C	0.841818	0.17966	0.338231
218	C	0.821471	0.134479	0.6567
219	N	0.845202	0.112331	0.656727
220	C	0.888566	0.128999	0.337809
221	C	0.910811	0.174652	0.35393
222	C	0.887038	0.198939	0.353252
223	H	0.902813	0.231428	0.365061
224	C	0.907981	0.099682	0.668948
225	C	0.88391	0.051291	0.670156
226	C	0.908782	0.028079	0.668587
227	C	0.956535	0.050692	0.665669
228	C	0.978173	0.098273	0.330301
229	N	0.953718	0.119576	0.331905
230	H	0.891534	0.993546	0.66995
231	H	0.012498	0.117672	0.327909
232	H	0.789071	0.117996	0.644827
233	C	0.833852	0.0238	0.674363
234	H	0.817991	0.027406	0.643937
235	H	0.822576	0.034948	0.703589
236	H	0.821706	0.987793	0.678746
237	C	0.957313	0.197781	0.373192
238	H	0.95991	0.176861	0.399506
239	H	0.9667	0.23042	0.388415
240	H	0.981869	0.203961	0.346679
241	C	0.830539	0.665302	0.338366
242	C	0.87544	0.690152	0.656016
243	N	0.897642	0.73604	0.656164
244	C	0.881198	0.762626	0.33817
245	C	0.835892	0.739239	0.355162
246	C	0.811556	0.691189	0.354352
247	H	0.779308	0.674453	0.366802
248	C	0.910366	0.811319	0.669339
249	C	0.958695	0.835655	0.671512
250	C	0.981882	0.883729	0.669822
251	C	0.959254	0.908785	0.665908
252	C	0.911714	0.882773	0.329668
253	N	0.890398	0.837006	0.331372
254	H	0.01638	0.901056	0.671907
255	H	0.892348	0.897668	0.326506
256	H	0.891643	0.67423	0.643424
257	C	0.986017	0.813048	0.676995
258	H	0.983241	0.793675	0.646734
259	H	0.974026	0.790506	0.706119
260	H	0.021886	0.836905	0.682306
261	C	0.813366	0.762714	0.375547
262	H	0.835022	0.786307	0.401452
263	H	0.781145	0.739499	0.391546
264	H	0.806504	0.781044	0.349527
265	C	0.488768	0.169112	0.66498
266	C	0.498508	0.150612	0.369589
267	N	0.537227	0.148645	0.370702
268	C	0.567287	0.1609	0.669366
269	C	0.558305	0.178026	0.629253
270	C	0.518891	0.181808	0.628052
271	H	0.514044	0.197755	0.601121
272	C	0.610882	0.167558	0.346332
273	C	0.641344	0.203372	0.374893
274	C	0.686786	0.213403	0.376117
275	C	0.702609	0.189481	0.349908
276	C	0.670121	0.152741	0.657665
277	N	0.626717	0.144183	0.655901
278	H	0.709489	0.240323	0.395039
279	H	0.679515	0.135083	0.636794
280	H	0.480306	0.144355	0.398713
281	C	0.628039	0.232405	0.400548
282	H	0.614877	0.247957	0.377487
283	H	0.656242	0.259535	0.418947
284	H	0.601998	0.211976	0.425145
285	C	0.589788	0.197015	0.590247
286	H	0.620004	0.194274	0.593641
287	H	0.600589	0.232773	0.586286
288	H	0.572456	0.17919	0.559486
289	C	0.84113	0.322788	0.664751
290	C	0.859534	0.351047	0.369376
291	N	0.861478	0.39172	0.370479
292	C	0.849265	0.409522	0.669117
293	C	0.832226	0.383426	0.62899
294	C	0.828489	0.34025	0.627813
295	H	0.812585	0.319459	0.600868
296	C	0.842575	0.446445	0.346048
297	C	0.806774	0.441091	0.374629
298	C	0.796742	0.476497	0.375858
299	C	0.820653	0.516251	0.349655
300	C	0.857372	0.520494	0.657375
301	N	0.865933	0.485656	0.655607
302	H	0.769838	0.472278	0.394802
303	H	0.875026	0.54755	0.636504
304	H	0.865763	0.339115	0.398524
305	C	0.777753	0.39876	0.400302
306	H	0.762204	0.370028	0.377258
307	H	0.750618	0.399824	0.418697
308	H	0.79819	0.393172	0.424908
309	C	0.813268	0.395898	0.58994
310	H	0.815958	0.428832	0.593324
311	H	0.777527	0.370903	0.585921
312	H	0.831158	0.396435	0.559213
313	C	0.687333	0.521511	0.664892
314	C	0.659231	0.511762	0.369612
315	N	0.618552	0.473028	0.370766
316	C	0.600647	0.443006	0.669407
317	C	0.626636	0.452053	0.629192
318	C	0.66983	0.491486	0.627914
319	H	0.690558	0.496378	0.600912
320	C	0.563744	0.399388	0.346393
321	C	0.569172	0.368937	0.374893
322	C	0.533777	0.32349	0.376151
323	C	0.49397	0.307639	0.350026
324	C	0.489643	0.340115	0.657848
325	N	0.52447	0.383528	0.656056
326	H	0.538051	0.300805	0.395035
327	H	0.462535	0.330704	0.637044
328	H	0.671266	0.529923	0.398747
329	C	0.611576	0.382264	0.40045
330	H	0.64025	0.395462	0.377332
331	H	0.61056	0.354063	0.418791
332	H	0.617214	0.408279	0.425084
333	C	0.614039	0.42062	0.590132
334	H	0.581104	0.390378	0.593584
335	H	0.639011	0.40986	0.586006
336	H	0.613427	0.437973	0.559439
337	C	0.982864	0.95739	0.665291
338	N	0.960376	0.981	0.66525
339	C	0.981502	0.027049	0.665152
340	N	0.0276	0.049531	0.665267
341	C	0.052531	0.028421	0.665297
342	N	0.028911	0.982324	0.665412
343	C	0.464536	0.260254	0.677997
344	N	0.418446	0.238077	0.675959
345	C	0.393376	0.191921	0.672052
346	N	0.416034	0.168383	0.66915
347	C	0.46193	0.189705	0.669528
348	N	0.484833	0.235063	0.674195
349	C	0.749986	0.207434	0.677842
350	N	0.77214	0.183507	0.675787
351	C	0.818295	0.204586	0.671853
352	N	0.841858	0.250788	0.668948
353	C	0.820551	0.275371	0.66936
354	N	0.77519	0.252921	0.674039
355	C	0.802724	0.545695	0.677633
356	N	0.826673	0.591783	0.675649
357	C	0.805595	0.616863	0.671873
358	N	0.759384	0.594256	0.669069
359	C	0.734786	0.548361	0.66938
360	N	0.757229	0.525433	0.673918
361	C	0.344914	0.168354	0.671772
362	C	0.320034	0.188713	0.990437
363	N	0.274151	0.164928	0.990451
364	C	0.247471	0.121496	0.671347
365	C	0.270934	0.099234	0.687269
366	C	0.319002	0.123066	0.686601
367	H	0.335745	0.10727	0.698264
368	C	0.198717	0.102049	0.002489
369	C	0.174358	0.126087	0.003505
370	C	0.126264	0.101173	0.001943
371	C	0.101143	0.05341	0.999216
372	C	0.127115	0.031801	0.664049
373	N	0.172877	0.056298	0.665638
374	H	0.108955	0.118402	0.003144
375	H	0.112207	0.997468	0.661799
376	H	0.33592	0.221164	0.978706
377	C	0.196872	0.176157	0.007458
378	H	0.216355	0.191886	0.977002
379	H	0.219273	0.187599	0.036701
380	H	0.172978	0.188287	0.011653
381	C	0.247626	0.052633	0.706288
382	H	0.224123	0.049866	0.732696
383	H	0.270919	0.043203	0.721329
384	H	0.229246	0.028209	0.679677
385	C	0.841818	0.17966	0.671563
386	C	0.821471	0.134479	0.990036
387	N	0.845202	0.112331	0.990059
388	C	0.888566	0.128999	0.671144
389	C	0.910811	0.174652	0.687262
390	C	0.887038	0.198939	0.686584
391	H	0.902813	0.231428	0.698396
392	C	0.907981	0.099682	0.00228
393	C	0.88391	0.051291	0.003488
394	C	0.908782	0.028079	0.001919
395	C	0.956535	0.050692	0.999
396	C	0.978173	0.098273	0.663634
397	N	0.953718	0.119576	0.66524
398	H	0.891534	0.993546	0.003282
399	H	0.012498	0.117672	0.661242
400	H	0.789071	0.117996	0.978159
401	C	0.833852	0.0238	0.007697
402	H	0.817991	0.027406	0.977272
403	H	0.822576	0.034948	0.036922
404	H	0.821706	0.987793	0.01208
405	C	0.957313	0.197781	0.706524
406	H	0.95991	0.176861	0.732838
407	H	0.9667	0.23042	0.721747
408	H	0.981869	0.203961	0.680015
409	C	0.830539	0.665302	0.671701
410	C	0.87544	0.690152	0.989347
411	N	0.897642	0.73604	0.989496
412	C	0.881198	0.762626	0.671502
413	C	0.835892	0.739239	0.688497
414	C	0.811556	0.691189	0.687687
415	H	0.779308	0.674453	0.700134
416	C	0.910366	0.811319	0.002671
417	C	0.958695	0.835655	0.004844
418	C	0.981882	0.883729	0.003157
419	C	0.959254	0.908785	0.999243
420	C	0.911714	0.882773	0.663003
421	N	0.890398	0.837006	0.664707
422	H	0.01638	0.901056	0.005239
423	H	0.892348	0.897668	0.659838
424	H	0.891643	0.67423	0.976759
425	C	0.986017	0.813048	0.010328
426	H	0.983241	0.793675	0.980066
427	H	0.974026	0.790506	0.039452
428	H	0.021886	0.836905	0.015637
429	C	0.813366	0.762714	0.708879
430	H	0.835022	0.786307	0.734788
431	H	0.781145	0.739499	0.724878
432	H	0.806504	0.781044	0.682862
433	C	0.488768	0.169112	0.998316
434	C	0.498508	0.150612	0.702921
435	N	0.537227	0.148645	0.704037
436	C	0.567287	0.1609	0.002702
437	C	0.558305	0.178026	0.962588
438	C	0.518891	0.181808	0.961387
439	H	0.514044	0.197755	0.934456
440	C	0.610882	0.167558	0.679664
441	C	0.641344	0.203372	0.708228
442	C	0.686786	0.213403	0.709449
443	C	0.702609	0.189481	0.68324
444	C	0.670121	0.152741	0.991001
445	N	0.626717	0.144183	0.989233
446	H	0.709489	0.240323	0.72837
447	H	0.679515	0.135083	0.970129
448	H	0.480306	0.144355	0.732045
449	C	0.628039	0.232405	0.73388
450	H	0.614877	0.247957	0.710822
451	H	0.656242	0.259535	0.752282
452	H	0.601998	0.211976	0.758476
453	C	0.589788	0.197015	0.923579
454	H	0.620004	0.194274	0.926973
455	H	0.600589	0.232773	0.919618
456	H	0.572456	0.17919	0.892821
457	C	0.84113	0.322788	0.998086
458	C	0.859534	0.351047	0.702711
459	N	0.861478	0.39172	0.703815
460	C	0.849265	0.409522	0.002452
461	C	0.832226	0.383426	0.962322
462	C	0.828489	0.34025	0.961148
463	H	0.812585	0.319459	0.9342
464	C	0.842575	0.446445	0.679384
465	C	0.806774	0.441091	0.707961
466	C	0.796742	0.476497	0.709193
467	C	0.820653	0.516251	0.682987
468	C	0.857372	0.520494	0.990711
469	N	0.865933	0.485656	0.988943
470	H	0.769838	0.472278	0.728138
471	H	0.875026	0.54755	0.969836
472	H	0.865763	0.339115	0.731856
473	C	0.777753	0.39876	0.733637
474	H	0.762204	0.370028	0.710593
475	H	0.750618	0.399824	0.752032
476	H	0.79819	0.393172	0.75824
477	C	0.813268	0.395898	0.923272
478	H	0.815958	0.428832	0.926656
479	H	0.777527	0.370903	0.919257
480	H	0.831158	0.396435	0.892548
481	C	0.687333	0.521511	0.998224
482	C	0.659231	0.511762	0.702944
483	N	0.618552	0.473028	0.704101
484	C	0.600647	0.443006	0.002739
485	C	0.626636	0.452053	0.962524
486	C	0.66983	0.491486	0.961246
487	H	0.690558	0.496378	0.934244
488	C	0.563744	0.399388	0.679728
489	C	0.569172	0.368937	0.708228
490	C	0.533777	0.32349	0.709483
491	C	0.49397	0.307639	0.683362
492	C	0.489643	0.340115	0.991183
493	N	0.52447	0.383528	0.989388
494	H	0.538051	0.300805	0.728367
495	H	0.462535	0.330704	0.970379
496	H	0.671266	0.529923	0.732078
497	C	0.611576	0.382264	0.733782
498	H	0.64025	0.395462	0.710667
499	H	0.61056	0.354063	0.752127
500	H	0.617214	0.408279	0.758419
501	C	0.614039	0.42062	0.923467
502	H	0.581104	0.390378	0.926915
503	H	0.639011	0.40986	0.919341
504	H	0.613427	0.437973	0.892774
