data_C324H216N36_2018-02-15_10:39:20
#******************************************
#
# CIF file created by Zeo++
# Zeo++ is an open source package to
# analyze microporous materials
#
#*******************************************

_cell_length_a		34.1192   
_cell_length_b		34.1297   
_cell_length_c		29.735   
_cell_angle_alpha		90   
_cell_angle_beta		90   
_cell_angle_gamma		119.993   

_symmetry_space_group_name_H-M		'P1'
_symmetry_Int_Tables_number		1
_symmetry_cell_setting		Monoclinic

loop_
_symmetry_equiv_pos_as_xyz
'+x,+y,+z'

loop_
_atom_site_label
_atom_site_type_symbol
_atom_site_fract_x
_atom_site_fract_y
_atom_site_fract_z
1	C	0.411176	0.242715	0.004795
2	C	0.387089	0.194754	0.005087
3	C	0.411466	0.17116	0.004634
4	H	0.393912	0.260115	0.005071
5	H	0.394417	0.136508	0.004897
6	C	0.763285	0.170666	0.004746
7	C	0.81126	0.19456	0.005032
8	C	0.834838	0.242522	0.004608
9	H	0.745894	0.136011	0.005024
10	H	0.869501	0.260139	0.004891
11	C	0.835275	0.594696	0.004799
12	C	0.811385	0.61878	0.005063
13	C	0.763409	0.594408	0.004592
14	H	0.869943	0.611953	0.005104
15	H	0.745793	0.611455	0.004841
16	C	0.338933	0.170561	0.0057
17	C	0.24318	0.122618	0.004213
18	N	0.170994	0.086495	0.042888
19	C	0.835468	0.170614	0.005652
20	C	0.883304	0.122702	0.004179
21	N	0.919349	0.086568	0.042867
22	C	0.835335	0.66692	0.00568
23	C	0.883178	0.76265	0.004203
24	N	0.919263	0.834813	0.04288
25	C	0.562126	0.161941	0.005258
26	C	0.843979	0.402303	0.005324
27	C	0.603622	0.443786	0.005222
28	C	0.195218	0.098614	0.004004
29	C	0.907249	0.098686	0.003981
30	C	0.907154	0.810597	0.003998
31	C	0.60346	0.161704	0.005243
32	C	0.844189	0.443847	0.005291
33	C	0.562083	0.402442	0.005199
34	C	0.051287	0.026624	0.004055
35	C	0.979126	0.02664	0.004051
36	H	0.082642	0.016254	0.094214
37	H	0.937417	0.016312	0.094212
38	C	0.051287	0.026624	0.33739
39	C	0.979126	0.02664	0.337387
40	H	0.082642	0.016254	0.42755
41	H	0.937417	0.016312	0.427546
42	C	0.051287	0.026624	0.670724
43	C	0.979126	0.02664	0.670717
44	H	0.082642	0.016254	0.76088
45	H	0.937417	0.016312	0.76088
46	C	0.026991	0.05019	0.003988
47	C	0.955556	0.978788	0.003984
48	C	0.979117	0.954488	0.004051
49	C	0.026985	0.978771	0.003977
50	H	0.920869	0.961457	0.004213
51	H	0.044328	0.96143	0.00422
52	H	0.044337	0.084867	0.004216
53	C	0.459272	0.195016	0.003856
54	C	0.482448	0.242706	0.003571
55	C	0.45898	0.26694	0.003937
56	H	0.517207	0.260186	0.003053
57	C	0.810953	0.266439	0.00385
58	C	0.763249	0.241902	0.003591
59	C	0.73903	0.194214	0.00391
60	H	0.745742	0.259156	0.003127
61	C	0.739473	0.546616	0.003826
62	C	0.764009	0.523449	0.003571
63	C	0.811713	0.546907	0.003937
64	H	0.74674	0.488699	0.003073
65	C	0.313113	0.157639	0.046065
66	N	0.267079	0.134588	0.043283
67	C	0.267473	0.134777	0.296334
68	C	0.315296	0.158722	0.297668
69	H	0.333142	0.167672	0.268089
70	C	0.195218	0.098614	0.337336
71	C	0.09948	0.050712	0.337931
72	C	0.124924	0.063445	0.045147
73	C	0.123449	0.062704	0.296772
74	C	0.171294	0.086643	0.295894
75	C	0.195772	0.098896	0.255112
76	C	0.243377	0.12272	0.255329
77	H	0.17913	0.090571	0.224898
78	H	0.260299	0.131194	0.22527
79	H	0.105837	0.053897	0.267061
80	C	0.332283	0.167251	0.092077
81	H	0.369164	0.185704	0.092433
82	H	0.320682	0.135461	0.110085
83	H	0.320639	0.187426	0.110056
84	C	0.103666	0.052815	0.090217
85	H	0.12909	0.065535	0.116882
86	H	0.082609	0.068327	0.094209
87	C	0.848365	0.157699	0.046021
88	N	0.871366	0.134668	0.043247
89	C	0.871166	0.134849	0.296298
90	C	0.847271	0.158777	0.297624
91	H	0.838324	0.16767	0.268042
92	C	0.907249	0.098686	0.337313
93	C	0.955042	0.050744	0.337918
94	C	0.942346	0.0635	0.045133
95	C	0.943067	0.062733	0.296758
96	C	0.919182	0.086691	0.295872
97	C	0.906953	0.098933	0.255087
98	C	0.883185	0.122767	0.255297
99	H	0.915253	0.090586	0.224876
100	H	0.874726	0.131224	0.225235
101	H	0.951858	0.053909	0.267049
102	C	0.838766	0.167277	0.092031
103	H	0.820359	0.185748	0.092382
104	H	0.870571	0.187424	0.110045
105	H	0.818546	0.135473	0.110008
106	C	0.95297	0.052874	0.090205
107	H	0.94028	0.06561	0.116866
108	H	0.98954	0.068373	0.094195
109	C	0.848242	0.692733	0.046047
110	N	0.871237	0.738752	0.04327
111	C	0.871041	0.738366	0.296321
112	C	0.847146	0.690557	0.297651
113	H	0.838252	0.672719	0.26807
114	C	0.907154	0.810597	0.337329
115	C	0.955021	0.90631	0.337925
116	C	0.942296	0.88087	0.045141
117	C	0.943041	0.882348	0.296766
118	C	0.919117	0.834515	0.295887
119	C	0.906887	0.810046	0.255104
120	C	0.88309	0.762457	0.255318
121	H	0.915214	0.826687	0.224891
122	H	0.874641	0.745542	0.225258
123	H	0.951848	0.899953	0.267056
124	C	0.838675	0.673564	0.092057
125	H	0.820231	0.636693	0.092411
126	H	0.818499	0.685188	0.110069
127	H	0.870495	0.685175	0.110035
128	C	0.952923	0.902122	0.090211
129	H	0.940206	0.876702	0.116875
130	H	0.937389	0.923157	0.094205
131	H	0.989492	0.923151	0.094208
132	C	0.69105	0.172565	0.336943
133	C	0.667077	0.168953	0.296594
134	N	0.625048	0.164018	0.299439
135	C	0.60346	0.161704	0.338577
136	C	0.625453	0.163902	0.046467
137	C	0.669151	0.169009	0.045073
138	H	0.686825	0.174527	0.074521
139	C	0.48592	0.173715	0.003739
140	N	0.5428	0.164208	0.299464
141	C	0.505991	0.169649	0.296757
142	C	0.504411	0.170293	0.045163
143	C	0.542632	0.164571	0.046519
144	C	0.563834	0.164998	0.087444
145	C	0.604868	0.164626	0.087418
146	H	0.550656	0.167628	0.117494
147	H	0.620613	0.167012	0.117451
148	H	0.492351	0.175908	0.074623
149	C	0.685635	0.173734	0.250612
150	H	0.718822	0.17636	0.250252
151	H	0.688629	0.203971	0.234796
152	H	0.662728	0.144255	0.23059
153	C	0.490717	0.174159	0.251421
154	H	0.510141	0.169243	0.225055
155	H	0.494812	0.207769	0.24725
156	H	0.455104	0.148805	0.247038
157	C	0.833356	0.52057	0.336973
158	C	0.836933	0.500188	0.296625
159	N	0.841861	0.463099	0.29948
160	C	0.844189	0.443847	0.338624
161	C	0.842034	0.463668	0.046509
162	C	0.836897	0.502224	0.045102
163	H	0.8315	0.514484	0.074544
164	C	0.832209	0.314379	0.003856
165	N	0.841692	0.380692	0.299534
166	C	0.836268	0.338458	0.296832
167	C	0.835688	0.336296	0.045266
168	C	0.841427	0.380232	0.046596
169	C	0.841042	0.401038	0.087511
170	C	0.841388	0.442419	0.08747
171	H	0.838502	0.38529	0.117576
172	H	0.839078	0.455816	0.117507
173	H	0.830169	0.318641	0.074722
174	C	0.832154	0.513956	0.250642
175	H	0.829544	0.544515	0.250276
176	H	0.801899	0.486726	0.234833
177	H	0.861636	0.520509	0.230617
178	C	0.83177	0.318684	0.251492
179	H	0.836698	0.343022	0.225127
180	H	0.79815	0.289179	0.24731
181	H	0.857131	0.308432	0.247119
182	C	0.485311	0.314909	0.336879
183	C	0.505716	0.338864	0.296547
184	N	0.542803	0.380882	0.299391
185	C	0.562083	0.402442	0.338533
186	C	0.542315	0.380438	0.046421
187	C	0.503743	0.336753	0.045016
188	H	0.4915	0.319098	0.074461
189	C	0.691507	0.519961	0.003712
190	N	0.625205	0.46312	0.299421
191	C	0.667442	0.499934	0.296703
192	C	0.669641	0.501554	0.045164
193	C	0.625738	0.463289	0.04649
194	C	0.60498	0.442057	0.087407
195	C	0.563606	0.401014	0.087375
196	H	0.620746	0.455258	0.117467
197	H	0.550237	0.385286	0.117412
198	H	0.687364	0.513588	0.074601
199	C	0.491852	0.320334	0.250574
200	H	0.461291	0.287165	0.250242
201	H	0.519064	0.317326	0.234684
202	H	0.485249	0.343252	0.230606
203	C	0.687232	0.515239	0.251377
204	H	0.662905	0.49582	0.225003
205	H	0.716774	0.511176	0.247204
206	H	0.697446	0.550835	0.247013
207	C	0.026991	0.05019	0.337319
208	C	0.955556	0.978788	0.337316
209	C	0.979117	0.954488	0.337387
210	C	0.026985	0.978771	0.337313
211	H	0.920869	0.961457	0.337545
212	H	0.044328	0.96143	0.337551
213	H	0.044337	0.084867	0.337548
214	C	0.459272	0.195016	0.337188
215	C	0.482448	0.242706	0.336902
216	C	0.45898	0.26694	0.337269
217	C	0.411176	0.242715	0.33813
218	C	0.387089	0.194754	0.338419
219	C	0.411466	0.17116	0.337968
220	H	0.393912	0.260115	0.338406
221	H	0.394417	0.136508	0.338231
222	H	0.517207	0.260186	0.336384
223	C	0.810953	0.266439	0.337181
224	C	0.763249	0.241902	0.336922
225	C	0.73903	0.194214	0.337245
226	C	0.763285	0.170666	0.338079
227	C	0.81126	0.19456	0.338365
228	C	0.834838	0.242522	0.337941
229	H	0.745894	0.136011	0.338358
230	H	0.869501	0.260139	0.338224
231	H	0.745742	0.259156	0.336458
232	C	0.739473	0.546616	0.337158
233	C	0.764009	0.523449	0.336902
234	C	0.811713	0.546907	0.337272
235	C	0.835275	0.594696	0.338133
236	C	0.811385	0.61878	0.338395
237	C	0.763409	0.594408	0.337925
238	H	0.869943	0.611953	0.338439
239	H	0.745793	0.611455	0.338174
240	H	0.74674	0.488699	0.336408
241	C	0.338933	0.170561	0.339034
242	C	0.313113	0.157639	0.379398
243	N	0.267079	0.134588	0.376616
244	C	0.24318	0.122618	0.337545
245	C	0.267473	0.134777	0.629668
246	C	0.315296	0.158722	0.631003
247	H	0.333142	0.167672	0.601422
248	C	0.195218	0.098614	0.67067
249	C	0.09948	0.050712	0.671262
250	N	0.170994	0.086495	0.376223
251	C	0.124924	0.063445	0.37848
252	C	0.123449	0.062704	0.630105
253	C	0.171294	0.086643	0.629228
254	C	0.195772	0.098896	0.588444
255	C	0.243377	0.12272	0.588663
256	H	0.17913	0.090571	0.55823
257	H	0.260299	0.131194	0.558604
258	H	0.105837	0.053897	0.600393
259	C	0.332283	0.167251	0.425411
260	H	0.369164	0.185704	0.425767
261	H	0.320682	0.135461	0.44342
262	H	0.320639	0.187426	0.443389
263	C	0.103666	0.052815	0.423551
264	H	0.12909	0.065535	0.450216
265	H	0.082609	0.068327	0.427543
266	C	0.835468	0.170614	0.338987
267	C	0.848365	0.157699	0.379354
268	N	0.871366	0.134668	0.376579
269	C	0.883304	0.122702	0.337514
270	C	0.871166	0.134849	0.629631
271	C	0.847271	0.158777	0.63096
272	H	0.838324	0.16767	0.601375
273	C	0.907249	0.098686	0.670647
274	C	0.955042	0.050744	0.671252
275	N	0.919349	0.086568	0.376199
276	C	0.942346	0.0635	0.378466
277	C	0.943067	0.062733	0.630092
278	C	0.919182	0.086691	0.629207
279	C	0.906953	0.098933	0.58842
280	C	0.883185	0.122767	0.588629
281	H	0.915253	0.090586	0.55821
282	H	0.874726	0.131224	0.558567
283	H	0.951858	0.053909	0.600383
284	C	0.838766	0.167277	0.425364
285	H	0.820359	0.185748	0.425717
286	H	0.870571	0.187424	0.443379
287	H	0.818546	0.135473	0.443342
288	C	0.95297	0.052874	0.423537
289	H	0.94028	0.06561	0.4502
290	H	0.98954	0.068373	0.427529
291	C	0.835335	0.66692	0.339014
292	C	0.848242	0.692733	0.379381
293	N	0.871237	0.738752	0.376603
294	C	0.883178	0.76265	0.337535
295	C	0.871041	0.738366	0.629655
296	C	0.847146	0.690557	0.630983
297	H	0.838252	0.672719	0.601405
298	C	0.907154	0.810597	0.670664
299	C	0.955021	0.90631	0.671259
300	N	0.919263	0.834813	0.376213
301	C	0.942296	0.88087	0.378473
302	C	0.943041	0.882348	0.630099
303	C	0.919117	0.834515	0.629221
304	C	0.906887	0.810046	0.588437
305	C	0.88309	0.762457	0.588653
306	H	0.915214	0.826687	0.558224
307	H	0.874641	0.745542	0.55859
308	H	0.951848	0.899953	0.60039
309	C	0.838675	0.673564	0.425391
310	H	0.820231	0.636693	0.425744
311	H	0.818499	0.685188	0.443403
312	H	0.870495	0.685175	0.443369
313	C	0.952923	0.902122	0.423544
314	H	0.940206	0.876702	0.45021
315	H	0.937389	0.923157	0.42754
316	H	0.989492	0.923151	0.427543
317	C	0.69105	0.172565	0.670277
318	C	0.667077	0.168953	0.629927
319	N	0.625048	0.164018	0.632772
320	C	0.60346	0.161704	0.671911
321	C	0.625453	0.163902	0.379801
322	C	0.669151	0.169009	0.378406
323	H	0.686825	0.174527	0.407856
324	C	0.562126	0.161941	0.338591
325	C	0.48592	0.173715	0.33707
326	N	0.5428	0.164208	0.632796
327	C	0.505991	0.169649	0.630092
328	C	0.504411	0.170293	0.378496
329	C	0.542632	0.164571	0.379852
330	C	0.563834	0.164998	0.420776
331	C	0.604868	0.164626	0.420753
332	H	0.550656	0.167628	0.450829
333	H	0.620613	0.167012	0.450785
334	H	0.492351	0.175908	0.407957
335	C	0.685635	0.173734	0.583948
336	H	0.718822	0.17636	0.583588
337	H	0.688629	0.203971	0.568131
338	H	0.662728	0.144255	0.563924
339	C	0.490717	0.174159	0.584755
340	H	0.510141	0.169243	0.558389
341	H	0.494812	0.207769	0.580585
342	H	0.455104	0.148805	0.580373
343	C	0.833356	0.52057	0.670304
344	C	0.836933	0.500188	0.629957
345	N	0.841861	0.463099	0.632813
346	C	0.844189	0.443847	0.671958
347	C	0.842034	0.463668	0.379842
348	C	0.836897	0.502224	0.378436
349	H	0.8315	0.514484	0.407879
350	C	0.843979	0.402303	0.338658
351	C	0.832209	0.314379	0.337188
352	N	0.841692	0.380692	0.632866
353	C	0.836268	0.338458	0.630166
354	C	0.835688	0.336296	0.378601
355	C	0.841427	0.380232	0.379929
356	C	0.841042	0.401038	0.420844
357	C	0.841388	0.442419	0.420803
358	H	0.838502	0.38529	0.450909
359	H	0.839078	0.455816	0.450839
360	H	0.830169	0.318641	0.408054
361	C	0.832154	0.513956	0.583975
362	H	0.829544	0.544515	0.583611
363	H	0.801899	0.486726	0.568165
364	H	0.861636	0.520509	0.563951
365	C	0.83177	0.318684	0.584825
366	H	0.836698	0.343022	0.558463
367	H	0.79815	0.289179	0.580645
368	H	0.857131	0.308432	0.580453
369	C	0.485311	0.314909	0.670213
370	C	0.505716	0.338864	0.62988
371	N	0.542803	0.380882	0.632725
372	C	0.562083	0.402442	0.671867
373	C	0.542315	0.380438	0.379754
374	C	0.503743	0.336753	0.378348
375	H	0.4915	0.319098	0.407795
376	C	0.603622	0.443786	0.338557
377	C	0.691507	0.519961	0.337044
378	N	0.625205	0.46312	0.632755
379	C	0.667442	0.499934	0.630038
380	C	0.669641	0.501554	0.378496
381	C	0.625738	0.463289	0.379825
382	C	0.60498	0.442057	0.420739
383	C	0.563606	0.401014	0.420709
384	H	0.620746	0.455258	0.450802
385	H	0.550237	0.385286	0.450744
386	H	0.687364	0.513588	0.407936
387	C	0.491852	0.320334	0.583907
388	H	0.461291	0.287165	0.583578
389	H	0.519064	0.317326	0.568017
390	H	0.485249	0.343252	0.563941
391	C	0.687232	0.515239	0.584711
392	H	0.662905	0.49582	0.558338
393	H	0.716774	0.511176	0.580538
394	H	0.697446	0.550835	0.580346
395	C	0.026991	0.05019	0.670653
396	C	0.955556	0.978788	0.67065
397	C	0.979117	0.954488	0.670717
398	C	0.026985	0.978771	0.670647
399	H	0.920869	0.961457	0.670879
400	H	0.044328	0.96143	0.670885
401	H	0.044337	0.084867	0.670882
402	C	0.459272	0.195016	0.670522
403	C	0.482448	0.242706	0.670236
404	C	0.45898	0.26694	0.670603
405	C	0.411176	0.242715	0.671464
406	C	0.387089	0.194754	0.671753
407	C	0.411466	0.17116	0.671303
408	H	0.393912	0.260115	0.67174
409	H	0.394417	0.136508	0.671565
410	H	0.517207	0.260186	0.669719
411	C	0.810953	0.266439	0.670516
412	C	0.763249	0.241902	0.670257
413	C	0.73903	0.194214	0.670579
414	C	0.763285	0.170666	0.671413
415	C	0.81126	0.19456	0.671699
416	C	0.834838	0.242522	0.671276
417	H	0.745894	0.136011	0.671693
418	H	0.869501	0.260139	0.671558
419	H	0.745742	0.259156	0.669792
420	C	0.739473	0.546616	0.670492
421	C	0.764009	0.523449	0.670236
422	C	0.811713	0.546907	0.670603
423	C	0.835275	0.594696	0.671467
424	C	0.811385	0.61878	0.67173
425	C	0.763409	0.594408	0.671259
426	H	0.869943	0.611953	0.67177
427	H	0.745793	0.611455	0.671508
428	H	0.74674	0.488699	0.669742
429	C	0.338933	0.170561	0.672369
430	C	0.313113	0.157639	0.712732
431	N	0.267079	0.134588	0.709951
432	C	0.24318	0.122618	0.670879
433	C	0.267473	0.134777	0.963002
434	C	0.315296	0.158722	0.964334
435	H	0.333142	0.167672	0.934756
436	C	0.09948	0.050712	0.004596
437	N	0.170994	0.086495	0.709557
438	C	0.124924	0.063445	0.711814
439	C	0.123449	0.062704	0.963439
440	C	0.171294	0.086643	0.962562
441	C	0.195772	0.098896	0.921778
442	C	0.243377	0.12272	0.921997
443	H	0.17913	0.090571	0.891565
444	H	0.260299	0.131194	0.891938
445	H	0.105837	0.053897	0.933727
446	C	0.332283	0.167251	0.758745
447	H	0.369164	0.185704	0.759101
448	H	0.320682	0.135461	0.776754
449	H	0.320639	0.187426	0.776724
450	C	0.103666	0.052815	0.756885
451	H	0.12909	0.065535	0.783551
452	H	0.082609	0.068327	0.760877
453	C	0.835468	0.170614	0.672318
454	C	0.848365	0.157699	0.712688
455	N	0.871366	0.134668	0.709914
456	C	0.883304	0.122702	0.670845
457	C	0.871166	0.134849	0.962965
458	C	0.847271	0.158777	0.96429
459	H	0.838324	0.16767	0.934709
460	C	0.955042	0.050744	0.004585
461	N	0.919349	0.086568	0.709534
462	C	0.942346	0.0635	0.7118
463	C	0.943067	0.062733	0.963426
464	C	0.919182	0.086691	0.962538
465	C	0.906953	0.098933	0.921755
466	C	0.883185	0.122767	0.921963
467	H	0.915253	0.090586	0.891541
468	H	0.874726	0.131224	0.891901
469	H	0.951858	0.053909	0.933717
470	C	0.838766	0.167277	0.758698
471	H	0.820359	0.185748	0.759047
472	H	0.870571	0.187424	0.77671
473	H	0.818546	0.135473	0.776677
474	C	0.95297	0.052874	0.756872
475	H	0.94028	0.06561	0.783534
476	H	0.98954	0.068373	0.760864
477	C	0.835335	0.66692	0.672348
478	C	0.848242	0.692733	0.712715
479	N	0.871237	0.738752	0.709937
480	C	0.883178	0.76265	0.670869
481	C	0.871041	0.738366	0.962989
482	C	0.847146	0.690557	0.964317
483	H	0.838252	0.672719	0.934736
484	C	0.955021	0.90631	0.004591
485	N	0.919263	0.834813	0.709547
486	C	0.942296	0.88087	0.711807
487	C	0.943041	0.882348	0.963433
488	C	0.919117	0.834515	0.962555
489	C	0.906887	0.810046	0.921771
490	C	0.88309	0.762457	0.921987
491	H	0.915214	0.826687	0.891558
492	H	0.874641	0.745542	0.891924
493	H	0.951848	0.899953	0.933724
494	C	0.838675	0.673564	0.758725
495	H	0.820231	0.636693	0.759078
496	H	0.818499	0.685188	0.776737
497	H	0.870495	0.685175	0.776703
498	C	0.952923	0.902122	0.756878
499	H	0.940206	0.876702	0.783544
500	H	0.937389	0.923157	0.760874
501	H	0.989492	0.923151	0.760877
502	C	0.69105	0.172565	0.003611
503	C	0.667077	0.168953	0.963261
504	N	0.625048	0.164018	0.966106
505	C	0.625453	0.163902	0.713135
506	C	0.669151	0.169009	0.71174
507	H	0.686825	0.174527	0.74119
508	C	0.562126	0.161941	0.671925
509	C	0.48592	0.173715	0.670405
510	N	0.5428	0.164208	0.96613
511	C	0.505991	0.169649	0.963426
512	C	0.504411	0.170293	0.71183
513	C	0.542632	0.164571	0.713186
514	C	0.563834	0.164998	0.754111
515	C	0.604868	0.164626	0.754084
516	H	0.550656	0.167628	0.784163
517	H	0.620613	0.167012	0.784119
518	H	0.492351	0.175908	0.741291
519	C	0.685635	0.173734	0.917278
520	H	0.718822	0.17636	0.916919
521	H	0.688629	0.203971	0.901465
522	H	0.662728	0.144255	0.897258
523	C	0.490717	0.174159	0.918089
524	H	0.510141	0.169243	0.891723
525	H	0.494812	0.207769	0.913919
526	H	0.455104	0.148805	0.913703
527	C	0.833356	0.52057	0.003638
528	C	0.836933	0.500188	0.963291
529	N	0.841861	0.463099	0.966147
530	C	0.842034	0.463668	0.713176
531	C	0.836897	0.502224	0.71177
532	H	0.8315	0.514484	0.741213
533	C	0.843979	0.402303	0.671992
534	C	0.832209	0.314379	0.670522
535	N	0.841692	0.380692	0.9662
536	C	0.836268	0.338458	0.9635
537	C	0.835688	0.336296	0.711935
538	C	0.841427	0.380232	0.713263
539	C	0.841042	0.401038	0.754178
540	C	0.841388	0.442419	0.754137
541	H	0.838502	0.38529	0.784243
542	H	0.839078	0.455816	0.784173
543	H	0.830169	0.318641	0.741388
544	C	0.832154	0.513956	0.917309
545	H	0.829544	0.544515	0.916942
546	H	0.801899	0.486726	0.901499
547	H	0.861636	0.520509	0.897285
548	C	0.83177	0.318684	0.918159
549	H	0.836698	0.343022	0.891793
550	H	0.79815	0.289179	0.913976
551	H	0.857131	0.308432	0.913788
552	C	0.485311	0.314909	0.003547
553	C	0.505716	0.338864	0.963214
554	N	0.542803	0.380882	0.966059
555	C	0.542315	0.380438	0.713088
556	C	0.503743	0.336753	0.711682
557	H	0.4915	0.319098	0.741129
558	C	0.603622	0.443786	0.671891
559	C	0.691507	0.519961	0.670378
560	N	0.625205	0.46312	0.966089
561	C	0.667442	0.499934	0.963372
562	C	0.669641	0.501554	0.71183
563	C	0.625738	0.463289	0.713159
564	C	0.60498	0.442057	0.754074
565	C	0.563606	0.401014	0.754043
566	H	0.620746	0.455258	0.784136
567	H	0.550237	0.385286	0.784079
568	H	0.687364	0.513588	0.741267
569	C	0.491852	0.320334	0.917241
570	H	0.461291	0.287165	0.916908
571	H	0.519064	0.317326	0.901351
572	H	0.485249	0.343252	0.897272
573	C	0.687232	0.515239	0.918045
574	H	0.662905	0.49582	0.891669
575	H	0.716774	0.511176	0.913872
576	H	0.697446	0.550835	0.91368
