data_C360H288N72_2018-02-15_10:39:57
#******************************************
#
# CIF file created by Zeo++
# Zeo++ is an open source package to
# analyze microporous materials
#
#*******************************************

_cell_length_a		29.2848   
_cell_length_b		29.2848   
_cell_length_c		29.5182   
_cell_angle_alpha		90   
_cell_angle_beta		90   
_cell_angle_gamma		120   

_symmetry_space_group_name_H-M		'P1'
_symmetry_Int_Tables_number		1
_symmetry_cell_setting		Monoclinic

loop_
_symmetry_equiv_pos_as_xyz
'+x,+y,+z'

loop_
_atom_site_label
_atom_site_type_symbol
_atom_site_fract_x
_atom_site_fract_y
_atom_site_fract_z
1	C	0.122887	0.313484	0.006677
2	N	0.040163	0.272106	0.302091
3	C	0.067378	0.285727	0.008423
4	C	0.037883	0.270997	0.049218
5	C	0.062388	0.283251	0.09467
6	H	0.086881	0.26514	0.098775
7	H	0.032549	0.268336	0.121344
8	H	0.086888	0.325855	0.09877
9	C	0.122887	0.313484	0.340007
10	N	0.040163	0.272106	0.635425
11	C	0.067378	0.285727	0.341755
12	C	0.037883	0.270997	0.38255
13	C	0.062388	0.283251	0.428004
14	H	0.086881	0.26514	0.43211
15	H	0.032549	0.268336	0.454679
16	H	0.086888	0.325855	0.432103
17	C	0.122887	0.313484	0.673344
18	N	0.040163	0.272106	0.968758
19	C	0.067378	0.285727	0.675088
20	C	0.037883	0.270997	0.715884
21	C	0.062388	0.283251	0.761337
22	H	0.086881	0.26514	0.765443
23	H	0.032549	0.268336	0.788012
24	H	0.086888	0.325855	0.765436
25	C	0.122886	0.813483	0.006677
26	N	0.040163	0.772105	0.302091
27	C	0.067377	0.785725	0.008423
28	C	0.037882	0.770998	0.049218
29	C	0.062388	0.783252	0.09467
30	H	0.08688	0.765138	0.098775
31	H	0.032549	0.768336	0.121344
32	H	0.086886	0.825852	0.09877
33	C	0.122886	0.813483	0.340007
34	N	0.040163	0.772105	0.635425
35	C	0.067377	0.785725	0.341755
36	C	0.037882	0.770998	0.38255
37	C	0.062388	0.783252	0.428004
38	H	0.08688	0.765138	0.43211
39	H	0.032549	0.768336	0.454679
40	H	0.086886	0.825852	0.432103
41	C	0.122886	0.813483	0.673344
42	N	0.040163	0.772105	0.968758
43	C	0.067377	0.785725	0.675088
44	C	0.037882	0.770998	0.715884
45	C	0.062388	0.783252	0.761337
46	H	0.08688	0.765138	0.765443
47	H	0.032549	0.768336	0.788012
48	H	0.086886	0.825852	0.765436
49	C	0.151159	0.369243	0.006775
50	C	0.206918	0.397513	0.006691
51	C	0.206918	0.313483	0.00666
52	C	0.151159	0.285996	0.006728
53	H	0.130951	0.24558	0.007382
54	H	0.130951	0.389451	0.007426
55	H	0.194564	0.265141	0.098766
56	H	0.194558	0.433528	0.098779
57	C	0.151159	0.369243	0.340109
58	C	0.206918	0.397513	0.340024
59	C	0.206918	0.313483	0.339994
60	C	0.151159	0.285996	0.340061
61	H	0.130951	0.24558	0.340715
62	H	0.130951	0.389451	0.340756
63	H	0.194564	0.265141	0.432099
64	H	0.194558	0.433528	0.432113
65	C	0.151159	0.369243	0.673442
66	C	0.206918	0.397513	0.673357
67	C	0.206918	0.313483	0.673327
68	C	0.151159	0.285996	0.673395
69	H	0.130951	0.24558	0.674048
70	H	0.130951	0.389451	0.674092
71	H	0.194564	0.265141	0.765433
72	H	0.194558	0.433528	0.765446
73	C	0.151158	0.869241	0.006775
74	C	0.206917	0.897512	0.006691
75	C	0.206919	0.813483	0.00666
76	C	0.151159	0.785997	0.006728
77	H	0.130951	0.745581	0.007382
78	H	0.13095	0.889449	0.007426
79	H	0.194564	0.765142	0.098766
80	H	0.194557	0.933528	0.098779
81	C	0.151158	0.869241	0.340109
82	C	0.206917	0.897512	0.340024
83	C	0.206919	0.813483	0.339994
84	C	0.151159	0.785997	0.340061
85	H	0.130951	0.745581	0.340715
86	H	0.13095	0.889449	0.340756
87	H	0.194564	0.765142	0.432099
88	H	0.194557	0.933528	0.432113
89	C	0.151158	0.869241	0.673442
90	C	0.206917	0.897512	0.673357
91	C	0.206919	0.813483	0.673327
92	C	0.151159	0.785997	0.673395
93	H	0.130951	0.745581	0.674048
94	H	0.13095	0.889449	0.674092
95	H	0.194564	0.765142	0.765433
96	H	0.194557	0.933528	0.765446
97	C	0.234405	0.369242	0.006762
98	H	0.24966	0.126871	0.007531
99	H	0.249399	0.210381	0.234447
100	N	0.248275	0.272109	0.30209
101	C	0.23467	0.285727	0.008418
102	C	0.249425	0.270994	0.049217
103	C	0.237168	0.283251	0.094666
104	H	0.249405	0.043049	0.234429
105	N	0.24829	0.480233	0.302096
106	C	0.234674	0.453023	0.008431
107	C	0.249413	0.482528	0.049222
108	C	0.23716	0.458026	0.094677
109	C	0.234405	0.369242	0.340095
110	H	0.24966	0.126871	0.340864
111	H	0.249399	0.210381	0.567782
112	N	0.248275	0.272109	0.635425
113	C	0.23467	0.285727	0.341752
114	C	0.249425	0.270994	0.38255
115	C	0.237168	0.283251	0.428
116	H	0.249405	0.043049	0.567761
117	N	0.24829	0.480233	0.635428
118	C	0.234674	0.453023	0.341765
119	C	0.249413	0.482528	0.382557
120	C	0.23716	0.458026	0.42801
121	C	0.234405	0.369242	0.673428
122	H	0.24966	0.126871	0.674197
123	H	0.249399	0.210381	0.901115
124	N	0.248275	0.272109	0.968758
125	C	0.23467	0.285727	0.675085
126	C	0.249425	0.270994	0.715884
127	C	0.237168	0.283251	0.761333
128	H	0.249405	0.043049	0.901095
129	N	0.24829	0.480233	0.968761
130	C	0.234674	0.453023	0.675099
131	C	0.249413	0.482528	0.71589
132	C	0.23716	0.458026	0.761344
133	C	0.234404	0.869241	0.006762
134	H	0.249659	0.626869	0.007531
135	H	0.249399	0.710382	0.234447
136	N	0.248275	0.772109	0.30209
137	C	0.234669	0.785725	0.008418
138	C	0.249424	0.770994	0.049217
139	C	0.237169	0.783252	0.094666
140	H	0.249405	0.543049	0.234429
141	N	0.248289	0.980233	0.302096
142	C	0.234674	0.953022	0.008431
143	C	0.249413	0.982527	0.049222
144	C	0.237159	0.958026	0.094677
145	C	0.234404	0.869241	0.340095
146	H	0.249659	0.626869	0.340864
147	H	0.249399	0.710382	0.567782
148	N	0.248275	0.772109	0.635425
149	C	0.234669	0.785725	0.341752
150	C	0.249424	0.770994	0.38255
151	C	0.237169	0.783252	0.428
152	H	0.249405	0.543049	0.567761
153	N	0.248289	0.980233	0.635428
154	C	0.234674	0.953022	0.341765
155	C	0.249413	0.982527	0.382554
156	C	0.237159	0.958026	0.42801
157	C	0.234404	0.869241	0.673428
158	H	0.249659	0.626869	0.674197
159	H	0.249399	0.710382	0.901115
160	N	0.248275	0.772109	0.968758
161	C	0.234669	0.785725	0.675085
162	C	0.249424	0.770994	0.715884
163	C	0.237169	0.783252	0.761333
164	H	0.249405	0.543049	0.901095
165	N	0.248289	0.980233	0.968761
166	C	0.234674	0.953022	0.675099
167	C	0.249413	0.982527	0.71589
168	C	0.237159	0.958026	0.761344
169	H	0.274822	0.38945	0.007405
170	C	0.401597	0.202837	0.008492
171	C	0.373326	0.147075	0.008312
172	C	0.317564	0.118806	0.008478
173	C	0.290072	0.147076	0.008354
174	C	0.317564	0.202839	0.008512
175	C	0.373326	0.230329	0.008365
176	H	0.393532	0.270741	0.007544
177	H	0.393531	0.126869	0.007497
178	C	0.286393	0.233991	0.252636
179	C	0.275063	0.245325	0.298816
180	H	0.307893	0.212501	0.25268
181	H	0.309992	0.270983	0.234442
182	H	0.255272	0.325855	0.098763
183	H	0.252089	0.268338	0.121344
184	N	0.276214	0.244206	0.046007
185	C	0.289828	0.230579	0.339668
186	C	0.2864	0.05645	0.25262
187	C	0.275074	0.033802	0.298806
188	H	0.31001	0.043062	0.234437
189	H	0.307888	0.099441	0.252653
190	H	0.252076	0.487871	0.121347
191	H	0.255273	0.433536	0.098785
192	N	0.276199	0.036103	0.045997
193	C	0.289822	0.063329	0.339651
194	C	0.463937	0.233992	0.252625
195	C	0.486593	0.245321	0.298809
196	H	0.477336	0.270985	0.234434
197	H	0.420947	0.212502	0.252664
198	H	0.477323	0.210383	0.234439
199	N	0.484306	0.244209	0.046
200	C	0.457075	0.23058	0.339658
201	H	0.274822	0.38945	0.340739
202	C	0.401597	0.202837	0.341826
203	C	0.373326	0.147075	0.341647
204	C	0.317564	0.118806	0.341813
205	C	0.290072	0.147076	0.341687
206	C	0.317564	0.202839	0.341847
207	C	0.373326	0.230329	0.341698
208	H	0.393532	0.270741	0.340878
209	H	0.393531	0.126869	0.34083
210	C	0.286393	0.233991	0.585971
211	C	0.275063	0.245325	0.632149
212	H	0.307893	0.212501	0.586015
213	H	0.309992	0.270983	0.567775
214	H	0.255272	0.325855	0.432096
215	H	0.252089	0.268338	0.454679
216	N	0.276214	0.244206	0.379342
217	C	0.289828	0.230579	0.673002
218	C	0.2864	0.05645	0.585954
219	C	0.275074	0.033802	0.632139
220	H	0.31001	0.043062	0.567772
221	H	0.307888	0.099441	0.585987
222	H	0.252076	0.487871	0.454682
223	H	0.255273	0.433536	0.43212
224	N	0.276199	0.036103	0.379332
225	C	0.289822	0.063329	0.672985
226	C	0.463937	0.233992	0.58596
227	C	0.486593	0.245321	0.632142
228	H	0.477336	0.270985	0.567768
229	H	0.420947	0.212502	0.585998
230	H	0.477323	0.210383	0.567772
231	N	0.484306	0.244209	0.379332
232	C	0.457075	0.23058	0.672991
233	H	0.274822	0.38945	0.674072
234	C	0.401597	0.202837	0.67516
235	C	0.373326	0.147075	0.67498
236	C	0.317564	0.118806	0.675146
237	C	0.290072	0.147076	0.675021
238	C	0.317564	0.202839	0.67518
239	C	0.373326	0.230329	0.675031
240	H	0.393532	0.270741	0.674211
241	H	0.393531	0.126869	0.674164
242	C	0.286393	0.233991	0.919304
243	C	0.275063	0.245325	0.965482
244	H	0.307893	0.212501	0.919348
245	H	0.309992	0.270983	0.901108
246	H	0.255272	0.325855	0.765429
247	H	0.252089	0.268338	0.788012
248	N	0.276214	0.244206	0.712675
249	C	0.289828	0.230579	0.006335
250	C	0.2864	0.05645	0.919287
251	C	0.275074	0.033802	0.965472
252	H	0.31001	0.043062	0.901105
253	H	0.307888	0.099441	0.919321
254	H	0.252076	0.487871	0.788015
255	H	0.255273	0.433536	0.765453
256	N	0.276199	0.036103	0.712665
257	C	0.289822	0.063329	0.006318
258	C	0.463937	0.233992	0.919294
259	C	0.486593	0.245321	0.965475
260	H	0.477336	0.270985	0.901101
261	H	0.420947	0.212502	0.919331
262	H	0.477323	0.210383	0.901105
263	N	0.484306	0.244209	0.712665
264	C	0.457075	0.23058	0.006325
265	H	0.274821	0.889449	0.007405
266	C	0.401596	0.702835	0.008492
267	C	0.373324	0.647073	0.008312
268	C	0.317564	0.618806	0.008478
269	C	0.290072	0.647077	0.008354
270	C	0.317563	0.702839	0.008512
271	C	0.373326	0.730329	0.008365
272	H	0.393532	0.770741	0.007544
273	H	0.393531	0.626869	0.007497
274	C	0.286391	0.733989	0.252636
275	C	0.275062	0.745325	0.298816
276	H	0.307892	0.712499	0.25268
277	H	0.309991	0.770982	0.234442
278	H	0.255272	0.825856	0.098763
279	H	0.252088	0.768336	0.121343
280	N	0.276213	0.744205	0.046007
281	C	0.289828	0.730578	0.339668
282	C	0.286401	0.556451	0.25262
283	C	0.275074	0.533803	0.298806
284	H	0.310009	0.543061	0.234437
285	H	0.307888	0.599442	0.252653
286	H	0.252075	0.98787	0.121347
287	H	0.255272	0.933536	0.098785
288	N	0.276198	0.536101	0.045997
289	C	0.289821	0.563328	0.339651
290	C	0.463938	0.733992	0.252625
291	C	0.486593	0.745321	0.298809
292	H	0.477334	0.770986	0.234434
293	H	0.420947	0.712503	0.252664
294	H	0.477324	0.710382	0.234439
295	N	0.484306	0.744209	0.046
296	C	0.457072	0.730578	0.339658
297	H	0.274821	0.889449	0.340739
298	C	0.401596	0.702835	0.341826
299	C	0.373324	0.647073	0.341647
300	C	0.317564	0.618806	0.341813
301	C	0.290072	0.647077	0.341687
302	C	0.317563	0.702839	0.341847
303	C	0.373326	0.730329	0.341698
304	H	0.393532	0.770741	0.340878
305	H	0.393531	0.626869	0.34083
306	C	0.286391	0.733989	0.585971
307	C	0.275062	0.745325	0.632149
308	H	0.307892	0.712499	0.586015
309	H	0.309991	0.770982	0.567775
310	H	0.255272	0.825856	0.432096
311	H	0.252088	0.768336	0.454679
312	N	0.276213	0.744205	0.379342
313	C	0.289828	0.730578	0.673002
314	C	0.286401	0.556451	0.585954
315	C	0.275074	0.533803	0.632139
316	H	0.310009	0.543061	0.567772
317	H	0.307888	0.599442	0.585987
318	H	0.252075	0.98787	0.454682
319	H	0.255272	0.933536	0.43212
320	N	0.276198	0.536101	0.379332
321	C	0.289821	0.563328	0.672985
322	C	0.463938	0.733992	0.58596
323	C	0.486593	0.745321	0.632142
324	H	0.477334	0.770986	0.567768
325	H	0.420947	0.712503	0.585998
326	H	0.477324	0.710382	0.567772
327	N	0.484306	0.744209	0.379332
328	C	0.457072	0.730578	0.672991
329	H	0.274821	0.889449	0.674072
330	C	0.401596	0.702835	0.67516
331	C	0.373324	0.647073	0.67498
332	C	0.317564	0.618806	0.675146
333	C	0.290072	0.647077	0.675021
334	C	0.317563	0.702839	0.67518
335	C	0.373326	0.730329	0.675031
336	H	0.393532	0.770741	0.674211
337	H	0.393531	0.626869	0.674164
338	C	0.286391	0.733989	0.919304
339	C	0.275062	0.745325	0.965482
340	H	0.307892	0.712499	0.919348
341	H	0.309991	0.770982	0.901108
342	H	0.255272	0.825856	0.765429
343	H	0.252088	0.768336	0.788012
344	N	0.276213	0.744205	0.712675
345	C	0.289828	0.730578	0.006335
346	C	0.286401	0.556451	0.919287
347	C	0.275074	0.533803	0.965472
348	H	0.310009	0.543061	0.901105
349	H	0.307888	0.599442	0.919321
350	H	0.252075	0.98787	0.788015
351	H	0.255272	0.933536	0.765453
352	N	0.276198	0.536101	0.712665
353	C	0.289821	0.563328	0.006318
354	C	0.463938	0.733992	0.919294
355	C	0.486593	0.745321	0.965475
356	H	0.477334	0.770986	0.901101
357	H	0.420947	0.712503	0.919331
358	H	0.477324	0.710382	0.901105
359	N	0.484306	0.744209	0.712665
360	C	0.457072	0.730578	0.006325
361	C	0.622888	0.313484	0.006677
362	C	0.65116	0.369243	0.006775
363	C	0.706918	0.397513	0.006691
364	C	0.734405	0.369242	0.006762
365	C	0.706918	0.313483	0.00666
366	C	0.651159	0.285996	0.006728
367	H	0.774821	0.38945	0.007405
368	H	0.630951	0.24558	0.007382
369	H	0.630952	0.389451	0.007426
370	C	0.901598	0.202837	0.008492
371	C	0.873325	0.147075	0.008312
372	C	0.817564	0.118806	0.008478
373	C	0.790074	0.147076	0.008354
374	C	0.817566	0.202839	0.008512
375	C	0.873326	0.230329	0.008365
376	H	0.749662	0.126871	0.007531
377	H	0.893532	0.270741	0.007544
378	H	0.89353	0.126869	0.007497
379	C	0.786394	0.233991	0.252636
380	C	0.775062	0.245325	0.298816
381	H	0.749398	0.210381	0.234447
382	H	0.807894	0.212501	0.25268
383	H	0.809991	0.270983	0.234442
384	N	0.748276	0.272109	0.30209
385	C	0.734672	0.285727	0.008418
386	C	0.749426	0.270994	0.049217
387	C	0.73717	0.283251	0.094666
388	H	0.755272	0.325855	0.098763
389	H	0.75209	0.268338	0.121344
390	H	0.694565	0.265141	0.098766
391	N	0.776214	0.244206	0.046007
392	C	0.789827	0.230579	0.339668
393	C	0.7864	0.05645	0.25262
394	C	0.775073	0.033802	0.298806
395	H	0.810012	0.043062	0.234437
396	H	0.807888	0.099441	0.252653
397	H	0.749407	0.043049	0.234429
398	N	0.748291	0.480233	0.302096
399	C	0.734676	0.453023	0.008431
400	C	0.749415	0.482528	0.049222
401	C	0.737161	0.458026	0.094677
402	H	0.694558	0.433528	0.098779
403	H	0.752076	0.487871	0.121347
404	H	0.755273	0.433536	0.098785
405	N	0.776199	0.036103	0.045997
406	C	0.789822	0.063329	0.339651
407	C	0.963937	0.233992	0.252625
408	C	0.986593	0.245321	0.298809
409	H	0.977336	0.270985	0.234434
410	H	0.920947	0.212502	0.252664
411	H	0.977327	0.210383	0.234439
412	N	0.540164	0.272106	0.302091
413	C	0.567377	0.285727	0.008423
414	C	0.537881	0.270997	0.049218
415	C	0.562387	0.283251	0.09467
416	H	0.586881	0.26514	0.098775
417	H	0.532549	0.268336	0.121344
418	H	0.586888	0.325855	0.09877
419	N	0.984306	0.244209	0.046
420	C	0.957075	0.23058	0.339658
421	C	0.622888	0.313484	0.340007
422	C	0.65116	0.369243	0.340109
423	C	0.706918	0.397513	0.340024
424	C	0.734405	0.369242	0.340095
425	C	0.706918	0.313483	0.339994
426	C	0.651159	0.285996	0.340061
427	H	0.774821	0.38945	0.340739
428	H	0.630951	0.24558	0.340715
429	H	0.630952	0.389451	0.340756
430	C	0.901598	0.202837	0.341826
431	C	0.873325	0.147075	0.341647
432	C	0.817564	0.118806	0.341813
433	C	0.790074	0.147076	0.341687
434	C	0.817566	0.202839	0.341847
435	C	0.873326	0.230329	0.341698
436	H	0.749662	0.126871	0.340864
437	H	0.893532	0.270741	0.340878
438	H	0.89353	0.126869	0.34083
439	C	0.786394	0.233991	0.585971
440	C	0.775062	0.245325	0.632149
441	H	0.749398	0.210381	0.567782
442	H	0.807894	0.212501	0.586015
443	H	0.809991	0.270983	0.567775
444	N	0.748276	0.272109	0.635425
445	C	0.734672	0.285727	0.341752
446	C	0.749426	0.270994	0.38255
447	C	0.73717	0.283251	0.428
448	H	0.755272	0.325855	0.432096
449	H	0.75209	0.268338	0.454679
450	H	0.694565	0.265141	0.432099
451	N	0.776214	0.244206	0.379342
452	C	0.789827	0.230579	0.673002
453	C	0.7864	0.05645	0.585954
454	C	0.775073	0.033802	0.632139
455	H	0.810012	0.043062	0.567772
456	H	0.807888	0.099441	0.585987
457	H	0.749407	0.043049	0.567761
458	N	0.748291	0.480233	0.635428
459	C	0.734676	0.453023	0.341765
460	C	0.749415	0.482528	0.382557
461	C	0.737161	0.458026	0.42801
462	H	0.694558	0.433528	0.432113
463	H	0.752076	0.487871	0.454682
464	H	0.755273	0.433536	0.43212
465	N	0.776199	0.036103	0.379332
466	C	0.789822	0.063329	0.672985
467	C	0.963937	0.233992	0.58596
468	C	0.986593	0.245321	0.632142
469	H	0.977336	0.270985	0.567768
470	H	0.920947	0.212502	0.585998
471	H	0.977327	0.210383	0.567772
472	N	0.540164	0.272106	0.635425
473	C	0.567377	0.285727	0.341755
474	C	0.537881	0.270997	0.38255
475	C	0.562387	0.283251	0.428004
476	H	0.586881	0.26514	0.43211
477	H	0.532549	0.268336	0.454679
478	H	0.586888	0.325855	0.432103
479	N	0.984306	0.244209	0.379332
480	C	0.957075	0.23058	0.672991
481	C	0.622888	0.313484	0.673344
482	C	0.65116	0.369243	0.673442
483	C	0.706918	0.397513	0.673357
484	C	0.734405	0.369242	0.673428
485	C	0.706918	0.313483	0.673327
486	C	0.651159	0.285996	0.673395
487	H	0.774821	0.38945	0.674072
488	H	0.630951	0.24558	0.674048
489	H	0.630952	0.389451	0.674092
490	C	0.901598	0.202837	0.67516
491	C	0.873325	0.147075	0.67498
492	C	0.817564	0.118806	0.675146
493	C	0.790074	0.147076	0.675021
494	C	0.817566	0.202839	0.67518
495	C	0.873326	0.230329	0.675031
496	H	0.749662	0.126871	0.674197
497	H	0.893532	0.270741	0.674211
498	H	0.89353	0.126869	0.674164
499	C	0.786394	0.233991	0.919304
500	C	0.775062	0.245325	0.965482
501	H	0.749398	0.210381	0.901115
502	H	0.807894	0.212501	0.919348
503	H	0.809991	0.270983	0.901108
504	N	0.748276	0.272109	0.968758
505	C	0.734672	0.285727	0.675085
506	C	0.749426	0.270994	0.715884
507	C	0.73717	0.283251	0.761333
508	H	0.755272	0.325855	0.765429
509	H	0.75209	0.268338	0.788012
510	H	0.694565	0.265141	0.765433
511	N	0.776214	0.244206	0.712675
512	C	0.789827	0.230579	0.006335
513	C	0.7864	0.05645	0.919287
514	C	0.775073	0.033802	0.965472
515	H	0.810012	0.043062	0.901105
516	H	0.807888	0.099441	0.919321
517	H	0.749407	0.043049	0.901095
518	N	0.748291	0.480233	0.968761
519	C	0.734676	0.453023	0.675099
520	C	0.749415	0.482528	0.71589
521	C	0.737161	0.458026	0.761344
522	H	0.694558	0.433528	0.765446
523	H	0.752076	0.487871	0.788015
524	H	0.755273	0.433536	0.765453
525	N	0.776199	0.036103	0.712665
526	C	0.789822	0.063329	0.006318
527	C	0.963937	0.233992	0.919294
528	C	0.986593	0.245321	0.965475
529	H	0.977336	0.270985	0.901101
530	H	0.920947	0.212502	0.919331
531	H	0.977327	0.210383	0.901105
532	N	0.540164	0.272106	0.968758
533	C	0.567377	0.285727	0.675088
534	C	0.537881	0.270997	0.715884
535	C	0.562387	0.283251	0.761337
536	H	0.586881	0.26514	0.765443
537	H	0.532549	0.268336	0.788012
538	H	0.586888	0.325855	0.765436
539	N	0.984306	0.244209	0.712665
540	C	0.957075	0.23058	0.006325
541	C	0.622887	0.813483	0.006677
542	C	0.651159	0.869241	0.006775
543	C	0.706917	0.897512	0.006691
544	C	0.734405	0.869241	0.006762
545	C	0.706919	0.813483	0.00666
546	C	0.651159	0.785997	0.006728
547	H	0.774822	0.889449	0.007405
548	H	0.630951	0.745581	0.007382
549	H	0.63095	0.889449	0.007426
550	C	0.901597	0.702835	0.008492
551	C	0.873323	0.647073	0.008312
552	C	0.817564	0.618806	0.008478
553	C	0.790074	0.647077	0.008354
554	C	0.817562	0.702839	0.008512
555	C	0.873326	0.730329	0.008365
556	H	0.749657	0.626869	0.007531
557	H	0.893532	0.770741	0.007544
558	H	0.893531	0.626869	0.007497
559	C	0.786393	0.733989	0.252636
560	C	0.775062	0.745325	0.298816
561	H	0.749399	0.710382	0.234447
562	H	0.807893	0.712499	0.25268
563	H	0.809991	0.770982	0.234442
564	N	0.748277	0.772109	0.30209
565	C	0.734671	0.785725	0.008418
566	C	0.749426	0.770994	0.049217
567	C	0.737171	0.783252	0.094666
568	H	0.755273	0.825856	0.098763
569	H	0.752089	0.768336	0.121343
570	H	0.694565	0.765142	0.098766
571	N	0.776213	0.744205	0.046007
572	C	0.789827	0.730578	0.339668
573	C	0.786401	0.556451	0.25262
574	C	0.775073	0.533803	0.298806
575	H	0.810008	0.543061	0.234437
576	H	0.807889	0.599442	0.252653
577	H	0.749407	0.543049	0.234429
578	N	0.748289	0.980233	0.302096
579	C	0.734674	0.953022	0.008431
580	C	0.749413	0.982527	0.049222
581	C	0.73716	0.958026	0.094677
582	H	0.694558	0.933528	0.098779
583	H	0.752076	0.98787	0.121347
584	H	0.755273	0.933536	0.098785
585	N	0.776198	0.536101	0.045997
586	C	0.789822	0.563328	0.339651
587	C	0.963937	0.733992	0.252625
588	C	0.986593	0.745321	0.298809
589	H	0.977336	0.770986	0.234434
590	H	0.920947	0.712503	0.252664
591	H	0.977326	0.710382	0.234439
592	N	0.540163	0.772105	0.302091
593	C	0.567377	0.785725	0.008423
594	C	0.537883	0.770998	0.049218
595	C	0.562388	0.783252	0.09467
596	H	0.58688	0.765138	0.098775
597	H	0.532549	0.768336	0.121344
598	H	0.586887	0.825852	0.09877
599	N	0.984306	0.744209	0.046
600	C	0.957074	0.730578	0.339658
601	C	0.622887	0.813483	0.340007
602	C	0.651159	0.869241	0.340109
603	C	0.706917	0.897512	0.340024
604	C	0.734405	0.869241	0.340095
605	C	0.706919	0.813483	0.339994
606	C	0.651159	0.785997	0.340061
607	H	0.774822	0.889449	0.340739
608	H	0.630951	0.745581	0.340715
609	H	0.63095	0.889449	0.340756
610	C	0.901597	0.702835	0.341826
611	C	0.873323	0.647073	0.341647
612	C	0.817564	0.618806	0.341813
613	C	0.790074	0.647077	0.341687
614	C	0.817562	0.702839	0.341847
615	C	0.873326	0.730329	0.341698
616	H	0.749657	0.626869	0.340864
617	H	0.893532	0.770741	0.340878
618	H	0.893531	0.626869	0.34083
619	C	0.786393	0.733989	0.585971
620	C	0.775062	0.745325	0.632149
621	H	0.749399	0.710382	0.567782
622	H	0.807893	0.712499	0.586015
623	H	0.809991	0.770982	0.567775
624	N	0.748277	0.772109	0.635425
625	C	0.734671	0.785725	0.341752
626	C	0.749426	0.770994	0.38255
627	C	0.737171	0.783252	0.428
628	H	0.755273	0.825856	0.432096
629	H	0.752089	0.768336	0.454679
630	H	0.694565	0.765142	0.432099
631	N	0.776213	0.744205	0.379342
632	C	0.789827	0.730578	0.673002
633	C	0.786401	0.556451	0.585954
634	C	0.775073	0.533803	0.632139
635	H	0.810008	0.543061	0.567772
636	H	0.807889	0.599442	0.585987
637	H	0.749407	0.543049	0.567761
638	N	0.748289	0.980233	0.635428
639	C	0.734674	0.953022	0.341765
640	C	0.749413	0.982527	0.382554
641	C	0.73716	0.958026	0.42801
642	H	0.694558	0.933528	0.432113
643	H	0.752076	0.98787	0.454682
644	H	0.755273	0.933536	0.43212
645	N	0.776198	0.536101	0.379332
646	C	0.789822	0.563328	0.672985
647	C	0.963937	0.733992	0.58596
648	C	0.986593	0.745321	0.632142
649	H	0.977336	0.770986	0.567768
650	H	0.920947	0.712503	0.585998
651	H	0.977326	0.710382	0.567772
652	N	0.540163	0.772105	0.635425
653	C	0.567377	0.785725	0.341755
654	C	0.537883	0.770998	0.38255
655	C	0.562388	0.783252	0.428004
656	H	0.58688	0.765138	0.43211
657	H	0.532549	0.768336	0.454679
658	H	0.586887	0.825852	0.432103
659	N	0.984306	0.744209	0.379332
660	C	0.957074	0.730578	0.672991
661	C	0.622887	0.813483	0.673344
662	C	0.651159	0.869241	0.673442
663	C	0.706917	0.897512	0.673357
664	C	0.734405	0.869241	0.673428
665	C	0.706919	0.813483	0.673327
666	C	0.651159	0.785997	0.673395
667	H	0.774822	0.889449	0.674072
668	H	0.630951	0.745581	0.674048
669	H	0.63095	0.889449	0.674092
670	C	0.901597	0.702835	0.67516
671	C	0.873323	0.647073	0.67498
672	C	0.817564	0.618806	0.675146
673	C	0.790074	0.647077	0.675021
674	C	0.817562	0.702839	0.67518
675	C	0.873326	0.730329	0.675031
676	H	0.749657	0.626869	0.674197
677	H	0.893532	0.770741	0.674211
678	H	0.893531	0.626869	0.674164
679	C	0.786393	0.733989	0.919304
680	C	0.775062	0.745325	0.965482
681	H	0.749399	0.710382	0.901115
682	H	0.807893	0.712499	0.919348
683	H	0.809991	0.770982	0.901108
684	N	0.748277	0.772109	0.968758
685	C	0.734671	0.785725	0.675085
686	C	0.749426	0.770994	0.715884
687	C	0.737171	0.783252	0.761333
688	H	0.755273	0.825856	0.765429
689	H	0.752089	0.768336	0.788012
690	H	0.694565	0.765142	0.765433
691	N	0.776213	0.744205	0.712675
692	C	0.789827	0.730578	0.006335
693	C	0.786401	0.556451	0.919287
694	C	0.775073	0.533803	0.965472
695	H	0.810008	0.543061	0.901105
696	H	0.807889	0.599442	0.919321
697	H	0.749407	0.543049	0.901095
698	N	0.748289	0.980233	0.968761
699	C	0.734674	0.953022	0.675099
700	C	0.749413	0.982527	0.71589
701	C	0.73716	0.958026	0.761344
702	H	0.694558	0.933528	0.765446
703	H	0.752076	0.98787	0.788015
704	H	0.755273	0.933536	0.765453
705	N	0.776198	0.536101	0.712665
706	C	0.789822	0.563328	0.006318
707	C	0.963937	0.733992	0.919294
708	C	0.986593	0.745321	0.965475
709	H	0.977336	0.770986	0.901101
710	H	0.920947	0.712503	0.919331
711	H	0.977326	0.710382	0.901105
712	N	0.540163	0.772105	0.968758
713	C	0.567377	0.785725	0.675088
714	C	0.537883	0.770998	0.715884
715	C	0.562388	0.783252	0.761337
716	H	0.58688	0.765138	0.765443
717	H	0.532549	0.768336	0.788012
718	H	0.586887	0.825852	0.765436
719	N	0.984306	0.744209	0.712665
720	C	0.957074	0.730578	0.006325
