data_C297H135N27O27_2018-02-15_10:39:38
#******************************************
#
# CIF file created by Zeo++
# Zeo++ is an open source package to
# analyze microporous materials
#
#*******************************************

_cell_length_a		30.5508   
_cell_length_b		30.5508   
_cell_length_c		29.402   
_cell_angle_alpha		90   
_cell_angle_beta		90   
_cell_angle_gamma		120   

_symmetry_space_group_name_H-M		'P1'
_symmetry_Int_Tables_number		1
_symmetry_cell_setting		Monoclinic

loop_
_symmetry_equiv_pos_as_xyz
'+x,+y,+z'

loop_
_atom_site_label
_atom_site_type_symbol
_atom_site_fract_x
_atom_site_fract_y
_atom_site_fract_z
1	C	0.0414	0.52325	0.304532
2	C	0.069512	0.537306	0.011978
3	C	0.041892	0.52348	0.053232
4	H	0.060587	0.532827	0.083691
5	N	0.056534	0.530828	0.261349
6	C	0.0414	0.52325	0.637865
7	C	0.069512	0.537306	0.34531
8	C	0.041892	0.52348	0.386566
9	H	0.060587	0.532827	0.417023
10	N	0.056534	0.530828	0.594681
11	C	0.0414	0.52325	0.9712
12	C	0.069512	0.537306	0.678645
13	C	0.041892	0.52348	0.719897
14	H	0.060587	0.532827	0.750358
15	N	0.056534	0.530828	0.928016
16	C	0.203646	0.564017	0.009463
17	C	0.203652	0.644704	0.00933
18	C	0.150263	0.617729	0.010906
19	C	0.12319	0.564145	0.011496
20	C	0.150252	0.53762	0.010923
21	H	0.131052	0.637239	0.011281
22	H	0.131026	0.498898	0.011362
23	C	0.203646	0.564017	0.342797
24	C	0.203652	0.644704	0.342664
25	C	0.150263	0.617729	0.344239
26	C	0.12319	0.564145	0.34483
27	C	0.150252	0.53762	0.344256
28	H	0.131052	0.637239	0.344613
29	H	0.131026	0.498898	0.344694
30	C	0.203646	0.564017	0.676131
31	C	0.203652	0.644704	0.675995
32	C	0.150263	0.617729	0.677573
33	C	0.12319	0.564145	0.678162
34	C	0.150252	0.53762	0.67759
35	H	0.131052	0.637239	0.677947
36	H	0.131026	0.498898	0.678029
37	C	0.229647	0.617358	0.008609
38	H	0.268472	0.636771	0.007765
39	C	0.257843	0.540111	0.049596
40	C	0.232556	0.539676	0.342521
41	C	0.256931	0.539978	0.30136
42	H	0.244117	0.546098	0.271172
43	N	0.249318	0.548766	0.092204
44	C	0.287446	0.551408	0.116932
45	H	0.291244	0.559417	0.150888
46	C	0.232624	0.69794	0.342127
47	C	0.256315	0.722481	0.049847
48	C	0.257212	0.722175	0.301137
49	H	0.244892	0.70333	0.270863
50	O	0.244589	0.701924	0.092379
51	C	0.284342	0.737913	0.116905
52	H	0.288554	0.734099	0.150858
53	C	0.229647	0.617358	0.34194
54	H	0.268472	0.636771	0.341096
55	C	0.257843	0.540111	0.38293
56	C	0.232556	0.539676	0.675856
57	C	0.256931	0.539978	0.634692
58	H	0.244117	0.546098	0.604507
59	N	0.249318	0.548766	0.425536
60	C	0.287446	0.551408	0.450266
61	H	0.291244	0.559417	0.484222
62	C	0.232624	0.69794	0.675461
63	C	0.256315	0.722481	0.383178
64	C	0.257212	0.722175	0.634471
65	H	0.244892	0.70333	0.604197
66	O	0.244589	0.701924	0.425713
67	C	0.284342	0.737913	0.450238
68	H	0.288554	0.734099	0.484192
69	C	0.229647	0.617358	0.675274
70	H	0.268472	0.636771	0.674431
71	C	0.257843	0.540111	0.716261
72	C	0.232556	0.539676	0.009187
73	C	0.256931	0.539978	0.968027
74	H	0.244117	0.546098	0.937838
75	N	0.249318	0.548766	0.758871
76	C	0.287446	0.551408	0.783597
77	H	0.291244	0.559417	0.817554
78	C	0.232624	0.69794	0.008796
79	C	0.256315	0.722481	0.716513
80	C	0.257212	0.722175	0.967802
81	H	0.244892	0.70333	0.937529
82	O	0.244589	0.701924	0.759047
83	C	0.284342	0.737913	0.78357
84	H	0.288554	0.734099	0.817523
85	C	0.302899	0.538852	0.049879
86	C	0.303287	0.540205	0.301112
87	H	0.322161	0.546767	0.270848
88	O	0.323451	0.547666	0.092411
89	C	0.302614	0.767553	0.049584
90	C	0.303332	0.768543	0.301367
91	H	0.32224	0.781371	0.271169
92	N	0.319811	0.776061	0.092187
93	C	0.302899	0.538852	0.383212
94	C	0.303287	0.540205	0.634444
95	H	0.322161	0.546767	0.60418
96	O	0.323451	0.547666	0.425743
97	C	0.302614	0.767553	0.382916
98	C	0.303332	0.768543	0.634699
99	H	0.32224	0.781371	0.604503
100	N	0.319811	0.776061	0.425519
101	C	0.302899	0.538852	0.716547
102	C	0.303287	0.540205	0.967778
103	H	0.322161	0.546767	0.937515
104	O	0.323451	0.547666	0.759078
105	C	0.302614	0.767553	0.716251
106	C	0.303332	0.768543	0.968033
107	H	0.32224	0.781371	0.937835
108	N	0.319811	0.776061	0.758854
109	C	0.461364	0.64473	0.009371
110	C	0.408019	0.617392	0.00852
111	C	0.380668	0.564051	0.009255
112	C	0.407643	0.537639	0.010892
113	C	0.461229	0.564149	0.011482
114	C	0.487758	0.617736	0.010916
115	H	0.388133	0.498917	0.01128
116	H	0.526478	0.637232	0.011393
117	H	0.388612	0.636808	0.007697
118	C	0.38069	0.821768	0.009435
119	C	0.407999	0.79573	0.008694
120	C	0.461342	0.821696	0.009364
121	C	0.487786	0.875083	0.01092
122	C	0.461306	0.90219	0.011407
123	C	0.407719	0.875162	0.01079
124	H	0.526506	0.894272	0.011337
125	H	0.388247	0.894412	0.011178
126	H	0.38856	0.756906	0.007949
127	C	0.826762	0.456298	0.009333
128	C	0.800744	0.402952	0.008561
129	C	0.826719	0.375586	0.009252
130	C	0.88011	0.402548	0.010832
131	C	0.907202	0.456135	0.011368
132	C	0.880156	0.482676	0.010763
133	H	0.899308	0.383026	0.011263
134	H	0.899389	0.521398	0.011187
135	H	0.76192	0.383555	0.007813
136	C	0.569116	0.375628	0.009405
137	C	0.622461	0.402941	0.008626
138	C	0.649842	0.456283	0.009357
139	C	0.622891	0.482725	0.010941
140	C	0.569303	0.456241	0.011408
141	C	0.542748	0.402654	0.010729
142	H	0.642424	0.521443	0.01139
143	H	0.504026	0.383181	0.011063
144	H	0.641847	0.383502	0.007823
145	C	0.649841	0.198638	0.009429
146	C	0.622478	0.224623	0.008646
147	C	0.569138	0.198607	0.009306
148	C	0.54274	0.145216	0.010782
149	C	0.569274	0.118163	0.011372
150	C	0.622862	0.145243	0.010826
151	H	0.504021	0.12599	0.011139
152	H	0.642373	0.126032	0.011251
153	H	0.641885	0.263449	0.007871
154	C	0.960864	0.482952	0.011857
155	C	0.988657	0.496868	0.304197
156	C	0.988386	0.496713	0.053185
157	H	0.969626	0.487328	0.083611
158	O	0.969986	0.487532	0.26103
159	C	0.013966	0.509537	0.236488
160	H	0.014363	0.509741	0.201776
161	C	0.542492	0.483091	0.01188
162	C	0.528549	0.496929	0.304214
163	C	0.502138	0.523261	0.304539
164	C	0.488073	0.537318	0.01198
165	C	0.50193	0.523567	0.053239
166	C	0.528727	0.496857	0.053202
167	H	0.538126	0.487502	0.083633
168	H	0.492586	0.532926	0.083694
169	N	0.494553	0.530798	0.261352
170	O	0.537885	0.487582	0.26105
171	C	0.515861	0.509534	0.2365
172	H	0.515656	0.509715	0.201787
173	C	0.54246	0.064502	0.011833
174	C	0.528566	0.036734	0.30416
175	C	0.502208	0.983992	0.304473
176	C	0.488175	0.955864	0.011908
177	C	0.501992	0.983459	0.053175
178	C	0.52873	0.036962	0.053149
179	H	0.538112	0.055708	0.083584
180	H	0.49265	0.964747	0.083626
181	N	0.494631	0.968881	0.261285
182	O	0.537884	0.055427	0.261001
183	C	0.515895	0.011457	0.236442
184	H	0.515686	0.011079	0.201729
185	C	0.327419	0.539786	0.342144
186	C	0.485571	0.792676	0.342402
187	C	0.48636	0.768917	0.050063
188	C	0.485414	0.722768	0.049714
189	C	0.485715	0.697997	0.342572
190	C	0.485267	0.722008	0.301426
191	C	0.485022	0.768127	0.301297
192	H	0.478679	0.780664	0.271055
193	H	0.479211	0.703182	0.271181
194	N	0.47694	0.705624	0.092333
195	O	0.477901	0.780804	0.092648
196	C	0.474501	0.741182	0.117147
197	H	0.466193	0.73673	0.151043
198	C	0.327438	0.792888	0.342525
199	C	0.703091	0.48051	0.342399
200	C	0.727626	0.481209	0.050051
201	C	0.772834	0.480276	0.049687
202	C	0.797843	0.480657	0.342477
203	C	0.773488	0.480332	0.30133
204	C	0.727106	0.480064	0.301265
205	H	0.708229	0.473786	0.27103
206	H	0.786271	0.474319	0.271077
207	N	0.781511	0.471764	0.092292
208	O	0.707278	0.472701	0.092637
209	C	0.743505	0.469288	0.117118
210	H	0.73965	0.46095	0.151008
211	C	0.544875	0.227566	0.342188
212	C	0.54418	0.251511	0.049806
213	C	0.545374	0.297792	0.049465
214	C	0.544733	0.322363	0.342269
215	C	0.544784	0.298127	0.301191
216	C	0.545059	0.252018	0.301132
217	H	0.551461	0.239567	0.270875
218	H	0.550822	0.316957	0.270959
219	N	0.554092	0.315078	0.092043
220	O	0.553074	0.239892	0.092358
221	C	0.55683	0.279679	0.116819
222	H	0.56488	0.283961	0.150766
223	C	0.797711	0.322336	0.342337
224	C	0.773925	0.29784	0.050017
225	C	0.727783	0.252633	0.049707
226	C	0.703117	0.227581	0.342528
227	C	0.727099	0.251892	0.30135
228	C	0.773201	0.298277	0.301231
229	H	0.785764	0.317126	0.270977
230	H	0.708267	0.239072	0.271115
231	N	0.710644	0.243996	0.092328
232	O	0.785813	0.318232	0.092586
233	C	0.746202	0.282027	0.117111
234	H	0.741761	0.285916	0.151003
235	C	0.461364	0.64473	0.342705
236	C	0.408019	0.617392	0.341854
237	C	0.380668	0.564051	0.342589
238	C	0.407643	0.537639	0.344225
239	C	0.461229	0.564149	0.344813
240	C	0.487758	0.617736	0.344249
241	H	0.388133	0.498917	0.344613
242	H	0.526478	0.637232	0.344725
243	H	0.388612	0.636808	0.341031
244	C	0.38069	0.821768	0.342769
245	C	0.407999	0.79573	0.342028
246	C	0.461342	0.821696	0.342698
247	C	0.487786	0.875083	0.344252
248	C	0.461306	0.90219	0.344739
249	C	0.407719	0.875162	0.344123
250	H	0.526506	0.894272	0.344671
251	H	0.388247	0.894412	0.344511
252	H	0.38856	0.756906	0.341283
253	C	0.826762	0.456298	0.342667
254	C	0.800744	0.402952	0.341895
255	C	0.826719	0.375586	0.342586
256	C	0.88011	0.402548	0.344164
257	C	0.907202	0.456135	0.344701
258	C	0.880156	0.482676	0.344096
259	H	0.899308	0.383026	0.344596
260	H	0.899389	0.521398	0.344521
261	H	0.76192	0.383555	0.341147
262	C	0.569116	0.375628	0.342739
263	C	0.622461	0.402941	0.34196
264	C	0.649842	0.456283	0.342691
265	C	0.622891	0.482725	0.344273
266	C	0.569303	0.456241	0.344742
267	C	0.542748	0.402654	0.344062
268	H	0.642424	0.521443	0.344725
269	H	0.504026	0.383181	0.344395
270	H	0.641847	0.383502	0.341157
271	C	0.649841	0.198638	0.342763
272	C	0.622478	0.224623	0.34198
273	C	0.569138	0.198607	0.342637
274	C	0.54274	0.145216	0.344116
275	C	0.569274	0.118163	0.344705
276	C	0.622862	0.145243	0.34416
277	H	0.504021	0.12599	0.344473
278	H	0.642373	0.126032	0.344586
279	H	0.641885	0.263449	0.341205
280	C	0.960864	0.482952	0.345191
281	C	0.988657	0.496868	0.637532
282	C	0.988386	0.496713	0.386518
283	H	0.969626	0.487328	0.416945
284	O	0.969986	0.487532	0.594361
285	C	0.013966	0.509537	0.569822
286	H	0.014363	0.509741	0.53511
287	C	0.542492	0.483091	0.345211
288	C	0.528549	0.496929	0.637545
289	C	0.502138	0.523261	0.637872
290	C	0.488073	0.537318	0.345313
291	C	0.50193	0.523567	0.386573
292	C	0.528727	0.496857	0.386535
293	H	0.538126	0.487502	0.416965
294	H	0.492586	0.532926	0.417026
295	N	0.494553	0.530798	0.594684
296	O	0.537885	0.487582	0.594385
297	C	0.515861	0.509534	0.569832
298	H	0.515656	0.509715	0.53512
299	C	0.54246	0.064502	0.345167
300	C	0.528566	0.036734	0.637494
301	C	0.502208	0.983992	0.637807
302	C	0.488175	0.955864	0.345242
303	C	0.501992	0.983459	0.386508
304	C	0.52873	0.036962	0.386484
305	H	0.538112	0.055708	0.416917
306	H	0.49265	0.964747	0.416958
307	N	0.494631	0.968881	0.594616
308	O	0.537884	0.055427	0.594334
309	C	0.515895	0.011457	0.569774
310	H	0.515686	0.011079	0.535063
311	C	0.327419	0.539786	0.675478
312	C	0.485571	0.792676	0.675733
313	C	0.48636	0.768917	0.383396
314	C	0.485414	0.722768	0.383046
315	C	0.485715	0.697997	0.675907
316	C	0.485267	0.722008	0.63476
317	C	0.485022	0.768127	0.634631
318	H	0.478679	0.780664	0.604388
319	H	0.479211	0.703182	0.604514
320	N	0.47694	0.705624	0.425665
321	O	0.477901	0.780804	0.425981
322	C	0.474501	0.741182	0.45048
323	H	0.466193	0.73673	0.484375
324	C	0.327438	0.792888	0.675856
325	C	0.703091	0.48051	0.675733
326	C	0.727626	0.481209	0.383382
327	C	0.772834	0.480276	0.383018
328	C	0.797843	0.480657	0.675812
329	C	0.773488	0.480332	0.634665
330	C	0.727106	0.480064	0.6346
331	H	0.708229	0.473786	0.604364
332	H	0.786271	0.474319	0.604408
333	N	0.781511	0.471764	0.425624
334	O	0.707278	0.472701	0.425971
335	C	0.743505	0.469288	0.450453
336	H	0.73965	0.46095	0.484341
337	C	0.544875	0.227566	0.675519
338	C	0.54418	0.251511	0.383141
339	C	0.545374	0.297792	0.382797
340	C	0.544733	0.322363	0.675601
341	C	0.544784	0.298127	0.634525
342	C	0.545059	0.252018	0.634464
343	H	0.551461	0.239567	0.604208
344	H	0.550822	0.316957	0.604293
345	N	0.554092	0.315078	0.425376
346	O	0.553074	0.239892	0.425692
347	C	0.55683	0.279679	0.450153
348	H	0.56488	0.283961	0.4841
349	C	0.797711	0.322336	0.675669
350	C	0.773925	0.29784	0.383348
351	C	0.727783	0.252633	0.383039
352	C	0.703117	0.227581	0.675859
353	C	0.727099	0.251892	0.634682
354	C	0.773201	0.298277	0.634563
355	H	0.785764	0.317126	0.60431
356	H	0.708267	0.239072	0.604449
357	N	0.710644	0.243996	0.425662
358	O	0.785813	0.318232	0.42592
359	C	0.746202	0.282027	0.450446
360	H	0.741761	0.285916	0.484338
361	C	0.461364	0.64473	0.676039
362	C	0.408019	0.617392	0.675189
363	C	0.380668	0.564051	0.67592
364	C	0.407643	0.537639	0.677556
365	C	0.461229	0.564149	0.678148
366	C	0.487758	0.617736	0.677584
367	H	0.388133	0.498917	0.677947
368	H	0.526478	0.637232	0.67806
369	H	0.388612	0.636808	0.674363
370	C	0.38069	0.821768	0.676101
371	C	0.407999	0.79573	0.675363
372	C	0.461342	0.821696	0.676033
373	C	0.487786	0.875083	0.677587
374	C	0.461306	0.90219	0.678073
375	C	0.407719	0.875162	0.677458
376	H	0.526506	0.894272	0.678002
377	H	0.388247	0.894412	0.677845
378	H	0.38856	0.756906	0.674618
379	C	0.826762	0.456298	0.675999
380	C	0.800744	0.402952	0.67523
381	C	0.826719	0.375586	0.67592
382	C	0.88011	0.402548	0.677499
383	C	0.907202	0.456135	0.678036
384	C	0.880156	0.482676	0.67743
385	H	0.899308	0.383026	0.67793
386	H	0.899389	0.521398	0.677852
387	H	0.76192	0.383555	0.674478
388	C	0.569116	0.375628	0.676073
389	C	0.622461	0.402941	0.675291
390	C	0.649842	0.456283	0.676026
391	C	0.622891	0.482725	0.677607
392	C	0.569303	0.456241	0.678073
393	C	0.542748	0.402654	0.677396
394	H	0.642424	0.521443	0.678056
395	H	0.504026	0.383181	0.67773
396	H	0.641847	0.383502	0.674492
397	C	0.649841	0.198638	0.676094
398	C	0.622478	0.224623	0.675315
399	C	0.569138	0.198607	0.675971
400	C	0.54274	0.145216	0.677448
401	C	0.569274	0.118163	0.678039
402	C	0.622862	0.145243	0.677492
403	H	0.504021	0.12599	0.677805
404	H	0.642373	0.126032	0.677917
405	H	0.641885	0.263449	0.67454
406	C	0.960864	0.482952	0.678522
407	C	0.988657	0.496868	0.970863
408	C	0.988386	0.496713	0.719849
409	H	0.969626	0.487328	0.750279
410	O	0.969986	0.487532	0.927696
411	C	0.013966	0.509537	0.903153
412	H	0.014363	0.509741	0.868441
413	C	0.542492	0.483091	0.678546
414	C	0.528549	0.496929	0.97088
415	C	0.502138	0.523261	0.971207
416	C	0.488073	0.537318	0.678645
417	C	0.50193	0.523567	0.719904
418	C	0.528727	0.496857	0.71987
419	H	0.538126	0.487502	0.7503
420	H	0.492586	0.532926	0.750361
421	N	0.494553	0.530798	0.928019
422	O	0.537885	0.487582	0.927716
423	C	0.515861	0.509534	0.903167
424	H	0.515656	0.509715	0.868452
425	C	0.54246	0.064502	0.678498
426	C	0.528566	0.036734	0.970826
427	C	0.502208	0.983992	0.971139
428	C	0.488175	0.955864	0.678573
429	C	0.501992	0.983459	0.719839
430	C	0.52873	0.036962	0.719815
431	H	0.538112	0.055708	0.750252
432	H	0.49265	0.964747	0.750293
433	N	0.494631	0.968881	0.927951
434	O	0.537884	0.055427	0.927669
435	C	0.515895	0.011457	0.903109
436	H	0.515686	0.011079	0.868394
437	C	0.327419	0.539786	0.00881
438	C	0.485571	0.792676	0.009068
439	C	0.48636	0.768917	0.716727
440	C	0.485414	0.722768	0.71638
441	C	0.485715	0.697997	0.009238
442	C	0.485267	0.722008	0.968091
443	C	0.485022	0.768127	0.967965
444	H	0.478679	0.780664	0.937722
445	H	0.479211	0.703182	0.937848
446	N	0.47694	0.705624	0.759
447	O	0.477901	0.780804	0.759313
448	C	0.474501	0.741182	0.783814
449	H	0.466193	0.73673	0.81771
450	C	0.327438	0.792888	0.00919
451	C	0.703091	0.48051	0.009065
452	C	0.727626	0.481209	0.716717
453	C	0.772834	0.480276	0.716353
454	C	0.797843	0.480657	0.009143
455	C	0.773488	0.480332	0.967996
456	C	0.727106	0.480064	0.967931
457	H	0.708229	0.473786	0.937695
458	H	0.786271	0.474319	0.937743
459	N	0.781511	0.471764	0.758959
460	O	0.707278	0.472701	0.759303
461	C	0.743505	0.469288	0.783784
462	H	0.73965	0.46095	0.817676
463	C	0.544875	0.227566	0.008854
464	C	0.54418	0.251511	0.716472
465	C	0.545374	0.297792	0.716132
466	C	0.544733	0.322363	0.008935
467	C	0.544784	0.298127	0.967856
468	C	0.545059	0.252018	0.967799
469	H	0.551461	0.239567	0.937542
470	H	0.550822	0.316957	0.937624
471	N	0.554092	0.315078	0.758707
472	O	0.553074	0.239892	0.759024
473	C	0.55683	0.279679	0.783485
474	H	0.56488	0.283961	0.817431
475	C	0.797711	0.322336	0.009003
476	C	0.773925	0.29784	0.716683
477	C	0.727783	0.252633	0.716373
478	C	0.703117	0.227581	0.009194
479	C	0.727099	0.251892	0.968016
480	C	0.773201	0.298277	0.967897
481	H	0.785764	0.317126	0.937644
482	H	0.708267	0.239072	0.93778
483	N	0.710644	0.243996	0.758993
484	O	0.785813	0.318232	0.759252
485	C	0.746202	0.282027	0.783777
486	H	0.741761	0.285916	0.817669
