data_C180H180N144_2018-02-15_10:44:56
#******************************************
#
# CIF file created by Zeo++
# Zeo++ is an open source package to
# analyze microporous materials
#
#*******************************************

_cell_length_a		34.7771   
_cell_length_b		34.7771   
_cell_length_c		28.9718   
_cell_angle_alpha		90   
_cell_angle_beta		90   
_cell_angle_gamma		120   

_symmetry_space_group_name_H-M		'P1'
_symmetry_Int_Tables_number		1
_symmetry_cell_setting		Monoclinic

loop_
_symmetry_equiv_pos_as_xyz
'+x,+y,+z'

loop_
_atom_site_label
_atom_site_type_symbol
_atom_site_fract_x
_atom_site_fract_y
_atom_site_fract_z
1	C	0.112112	0.076718	0.018468
2	C	0.960145	0.044286	0.018476
3	H	0.928253	0.021172	0.021039
4	H	0.120893	0.108613	0.021011
5	H	0.688051	0.149227	0.023715
6	C	0.258987	0.129613	0.06019
7	C	0.211358	0.103908	0.059758
8	N	0.282296	0.144548	0.100598
9	H	0.314452	0.162446	0.101209
10	H	0.26808	0.142848	0.129824
11	N	0.187468	0.088008	0.099717
12	H	0.155332	0.069876	0.099751
13	H	0.201309	0.089453	0.129112
14	N	0.327967	0.159472	0.018493
15	C	0.907207	0.138224	0.060209
16	C	0.932881	0.116265	0.059779
17	N	0.892281	0.146623	0.100609
18	H	0.874421	0.160924	0.101211
19	H	0.893997	0.134148	0.129852
20	N	0.948721	0.108195	0.099728
21	H	0.966694	0.094017	0.099806
22	H	0.947023	0.12027	0.129232
23	N	0.877399	0.177393	0.018497
24	C	0.70725	0.181838	0.019749
25	C	0.647314	0.197802	0.018177
26	C	0.630239	0.203795	0.060663
27	C	0.587856	0.201255	0.061142
28	N	0.567982	0.202401	0.101549
29	H	0.578821	0.199668	0.131408
30	H	0.538417	0.198751	0.102007
31	C	0.565688	0.197757	0.018598
32	C	0.283035	0.140326	0.017732
33	C	0.89654	0.151603	0.017751
34	N	0.655589	0.213526	0.099791
35	H	0.684496	0.215631	0.099808
36	H	0.648214	0.222981	0.128193
37	N	0.534006	0.209029	0.018479
38	C	0.992578	0.924755	0.018472
39	H	0.015691	0.915972	0.021011
40	C	0.502582	0.329599	0.019779
41	H	0.48918	0.348803	0.023789
42	C	0.855031	0.534301	0.019843
43	H	0.887625	0.547709	0.023933
44	C	0.898593	0.777875	0.060197
45	C	0.920519	0.825504	0.059766
46	N	0.890217	0.754566	0.100603
47	H	0.875959	0.722409	0.101214
48	H	0.902733	0.768781	0.129831
49	N	0.92851	0.849394	0.099725
50	H	0.942517	0.881531	0.09976
51	H	0.916114	0.835552	0.129121
52	N	0.859477	0.708896	0.018496
53	C	0.839077	0.45841	0.018238
54	C	0.833175	0.435387	0.060734
55	C	0.835681	0.395523	0.061221
56	N	0.834556	0.374502	0.101616
57	H	0.837326	0.388076	0.13148
58	H	0.83815	0.348554	0.102053
59	N	0.823538	0.451078	0.099863
60	H	0.821526	0.47793	0.099914
61	H	0.814277	0.434361	0.128347
62	C	0.578491	0.389523	0.018181
63	C	0.601608	0.406543	0.06065
64	C	0.64145	0.448927	0.061135
65	N	0.662515	0.468756	0.101542
66	H	0.648972	0.457882	0.131406
67	H	0.688425	0.498319	0.102011
68	N	0.58604	0.381146	0.099753
69	H	0.559241	0.352237	0.099765
70	H	0.602913	0.388484	0.128125
71	C	0.839049	0.3768	0.018672
72	N	0.82779	0.333849	0.018495
73	C	0.66007	0.471146	0.018601
74	N	0.703021	0.502835	0.018467
75	C	0.88526	0.753829	0.017736
76	C	0.066749	0.045395	0.017701
77	N	0.036177	0.059181	0.017796
78	C	0.99147	0.030246	0.017698
79	H	0.474166	0.155334	0.015596
80	C	0.835789	0.165237	0.015188
81	H	0.814291	0.132902	0.01184
82	C	0.188023	0.093395	0.350189
83	C	0.212091	0.10624	0.307728
84	C	0.259693	0.127637	0.308163
85	N	0.283563	0.13523	0.26825
86	H	0.269677	0.12297	0.23884
87	H	0.315636	0.148547	0.268336
88	N	0.188801	0.097884	0.267315
89	H	0.156692	0.084184	0.266753
90	H	0.203073	0.110025	0.238017
91	N	0.143237	0.066749	0.349502
92	C	0.94346	0.103516	0.350206
93	C	0.930664	0.114782	0.30774
94	C	0.909278	0.140998	0.308185
95	N	0.90175	0.157332	0.268274
96	H	0.914072	0.155757	0.238884
97	H	0.888442	0.176096	0.26836
98	N	0.939047	0.099901	0.267304
99	H	0.952624	0.081375	0.2668
100	H	0.926803	0.101936	0.23804
101	N	0.97011	0.085379	0.349506
102	H	0.624053	0.17513	0.241055
103	C	0.066749	0.045395	0.351035
104	N	0.036177	0.059181	0.351128
105	C	0.99147	0.030246	0.351035
106	C	0.112112	0.076718	0.351801
107	C	0.960145	0.044286	0.351808
108	H	0.928253	0.021172	0.354373
109	H	0.120893	0.108613	0.354345
110	H	0.474166	0.155334	0.348929
111	C	0.835789	0.165237	0.348526
112	H	0.688051	0.149227	0.357048
113	H	0.814291	0.132902	0.345174
114	C	0.188023	0.093395	0.683521
115	C	0.212091	0.10624	0.641062
116	C	0.259693	0.127637	0.641497
117	C	0.283035	0.140326	0.351066
118	C	0.258987	0.129613	0.393524
119	C	0.211358	0.103908	0.39309
120	N	0.283563	0.13523	0.601582
121	H	0.269677	0.12297	0.572174
122	H	0.315636	0.148547	0.601668
123	N	0.188801	0.097884	0.600647
124	H	0.156692	0.084184	0.600088
125	H	0.203073	0.110025	0.571349
126	N	0.282296	0.144548	0.433929
127	H	0.314452	0.162446	0.43454
128	H	0.26808	0.142848	0.463158
129	N	0.187468	0.088008	0.433049
130	H	0.155332	0.069876	0.433084
131	H	0.201309	0.089453	0.462447
132	N	0.143237	0.066749	0.682837
133	N	0.327967	0.159472	0.351825
134	C	0.94346	0.103516	0.683541
135	C	0.930664	0.114782	0.641072
136	C	0.909278	0.140998	0.641518
137	C	0.89654	0.151603	0.351083
138	C	0.907207	0.138224	0.393542
139	C	0.932881	0.116265	0.393114
140	N	0.90175	0.157332	0.601606
141	H	0.914072	0.155757	0.572216
142	H	0.888442	0.176096	0.601693
143	N	0.939047	0.099901	0.600636
144	H	0.952624	0.081375	0.600133
145	H	0.926803	0.101936	0.571373
146	N	0.892281	0.146623	0.433943
147	H	0.874421	0.160924	0.434544
148	H	0.893997	0.134148	0.463185
149	N	0.948721	0.108195	0.433063
150	H	0.966694	0.094017	0.433139
151	H	0.947023	0.12027	0.462564
152	N	0.97011	0.085379	0.682841
153	N	0.877399	0.177393	0.351829
154	H	0.624053	0.17513	0.574387
155	C	0.066749	0.045395	0.684366
156	N	0.036177	0.059181	0.684463
157	C	0.99147	0.030246	0.684366
158	C	0.112112	0.076718	0.685133
159	C	0.960145	0.044286	0.685143
160	H	0.928253	0.021172	0.687704
161	H	0.120893	0.108613	0.687676
162	H	0.474166	0.155334	0.682261
163	C	0.835789	0.165237	0.681857
164	H	0.688051	0.149227	0.690382
165	H	0.814291	0.132902	0.678505
166	C	0.188023	0.093395	0.016855
167	C	0.212091	0.10624	0.974393
168	C	0.259693	0.127637	0.974828
169	C	0.283035	0.140326	0.684397
170	C	0.258987	0.129613	0.726856
171	C	0.211358	0.103908	0.726424
172	N	0.283563	0.13523	0.934917
173	H	0.269677	0.12297	0.905506
174	H	0.315636	0.148547	0.935003
175	N	0.188801	0.097884	0.933982
176	H	0.156692	0.084184	0.933419
177	H	0.203073	0.110025	0.904684
178	N	0.282296	0.144548	0.767264
179	H	0.314452	0.162446	0.767875
180	H	0.26808	0.142848	0.796489
181	N	0.187468	0.088008	0.766384
182	H	0.155332	0.069876	0.766415
183	H	0.201309	0.089453	0.795778
184	N	0.143237	0.066749	0.016169
185	N	0.327967	0.159472	0.68516
186	C	0.94346	0.103516	0.016873
187	C	0.930664	0.114782	0.974407
188	C	0.909278	0.140998	0.974849
189	C	0.89654	0.151603	0.684418
190	C	0.907207	0.138224	0.726877
191	C	0.932881	0.116265	0.726445
192	N	0.90175	0.157332	0.934941
193	H	0.914072	0.155757	0.905551
194	H	0.888442	0.176096	0.935024
195	N	0.939047	0.099901	0.933971
196	H	0.952624	0.081375	0.933464
197	H	0.926803	0.101936	0.904705
198	N	0.892281	0.146623	0.767275
199	H	0.874421	0.160924	0.767879
200	H	0.893997	0.134148	0.796517
201	N	0.948721	0.108195	0.766394
202	H	0.966694	0.094017	0.766474
203	H	0.947023	0.12027	0.795899
204	N	0.97011	0.085379	0.016172
205	N	0.877399	0.177393	0.685164
206	H	0.624053	0.17513	0.907722
207	N	0.423604	0.193227	0.016358
208	C	0.357422	0.201078	0.015174
209	C	0.491178	0.188276	0.017014
210	C	0.75305	0.200362	0.018241
211	C	0.818411	0.193839	0.016503
212	N	0.773254	0.175423	0.017453
213	C	0.565688	0.197757	0.351932
214	C	0.583903	0.193953	0.309189
215	C	0.623848	0.191547	0.309265
216	N	0.563672	0.194581	0.268861
217	H	0.536687	0.196315	0.268404
218	H	0.576924	0.197057	0.23887
219	N	0.640594	0.184047	0.269658
220	H	0.667174	0.181566	0.269697
221	N	0.423604	0.193227	0.349692
222	C	0.357422	0.201078	0.348508
223	C	0.491178	0.188276	0.350348
224	C	0.75305	0.200362	0.351573
225	C	0.818411	0.193839	0.349837
226	N	0.773254	0.175423	0.35079
227	C	0.70725	0.181838	0.353082
228	C	0.647314	0.197802	0.351511
229	C	0.630239	0.203795	0.393997
230	C	0.587856	0.201255	0.394474
231	C	0.565688	0.197757	0.685264
232	C	0.583903	0.193953	0.642522
233	C	0.623848	0.191547	0.642598
234	N	0.567982	0.202401	0.434882
235	H	0.578821	0.199668	0.464742
236	H	0.538417	0.198751	0.435341
237	N	0.563672	0.194581	0.602193
238	H	0.536687	0.196315	0.601738
239	H	0.576924	0.197057	0.572202
240	N	0.640594	0.184047	0.60299
241	H	0.667174	0.181566	0.603028
242	N	0.423604	0.193227	0.683027
243	C	0.357422	0.201078	0.68184
244	C	0.491178	0.188276	0.683679
245	C	0.75305	0.200362	0.684908
246	C	0.818411	0.193839	0.683172
247	N	0.773254	0.175423	0.684121
248	C	0.70725	0.181838	0.686417
249	C	0.647314	0.197802	0.684843
250	C	0.630239	0.203795	0.727329
251	C	0.587856	0.201255	0.727809
252	C	0.583903	0.193953	0.975853
253	C	0.623848	0.191547	0.975929
254	N	0.567982	0.202401	0.768213
255	H	0.578821	0.199668	0.798073
256	H	0.538417	0.198751	0.768672
257	N	0.563672	0.194581	0.935528
258	H	0.536687	0.196315	0.935069
259	H	0.576924	0.197057	0.905537
260	N	0.640594	0.184047	0.936325
261	H	0.667174	0.181566	0.936363
262	C	0.468894	0.212201	0.017228
263	C	0.403402	0.218451	0.016496
264	H	0.346591	0.22258	0.011799
265	N	0.689535	0.206649	0.016786
266	N	0.534006	0.209029	0.351811
267	C	0.468894	0.212201	0.350562
268	C	0.403402	0.218451	0.349834
269	H	0.346591	0.22258	0.345133
270	N	0.655589	0.213526	0.433125
271	H	0.684496	0.215631	0.433142
272	H	0.648214	0.222981	0.461525
273	N	0.689535	0.206649	0.35012
274	N	0.534006	0.209029	0.685146
275	C	0.468894	0.212201	0.683893
276	C	0.403402	0.218451	0.683165
277	H	0.346591	0.22258	0.678467
278	N	0.655589	0.213526	0.766457
279	H	0.684496	0.215631	0.766474
280	H	0.648214	0.222981	0.79486
281	N	0.689535	0.206649	0.683455
282	N	0.977683	0.985891	0.017801
283	C	0.006616	0.970116	0.017708
284	N	0.050974	0.000686	0.017799
285	C	0.475294	0.2838	0.018252
286	N	0.493434	0.257228	0.018159
287	N	0.430152	0.263607	0.017463
288	N	0.779611	0.245077	0.018162
289	C	0.82464	0.265572	0.017245
290	N	0.843625	0.239268	0.016383
291	C	0.848554	0.311783	0.017073
292	H	0.8815	0.327722	0.015754
293	C	0.836509	0.561581	0.018278
294	N	0.791794	0.543429	0.018167
295	C	0.771301	0.567963	0.017218
296	N	0.797606	0.613251	0.016352
297	C	0.843035	0.633465	0.016507
298	N	0.861449	0.606724	0.017494
299	C	0.871635	0.679445	0.015185
300	C	0.72509	0.545667	0.017
301	H	0.709155	0.562673	0.015596
302	H	0.90397	0.690282	0.011823
303	C	0.933341	0.848843	0.350196
304	C	0.922115	0.824774	0.307735
305	C	0.895912	0.777171	0.30817
306	N	0.87964	0.753305	0.268255
307	H	0.881266	0.76719	0.238846
308	H	0.860883	0.721231	0.268341
309	N	0.937047	0.848066	0.267323
310	H	0.955455	0.880176	0.266762
311	H	0.934915	0.833795	0.238023
312	N	0.95148	0.893627	0.349513
313	C	0.839049	0.3768	0.352005
314	C	0.842774	0.39876	0.309238
315	C	0.845267	0.441151	0.309317
316	N	0.841962	0.377836	0.268892
317	H	0.840151	0.349082	0.268411
318	H	0.839308	0.388561	0.238934
319	N	0.852791	0.465376	0.269686
320	H	0.855574	0.494561	0.269817
321	H	0.862037	0.457828	0.241249
322	N	0.830232	0.491782	0.016793
323	N	0.82779	0.333849	0.351829
324	C	0.66007	0.471146	0.351936
325	C	0.638003	0.452978	0.309202
326	C	0.595651	0.413038	0.309284
327	N	0.658819	0.473251	0.268872
328	H	0.687544	0.500232	0.26841
329	H	0.648008	0.46003	0.238876
330	N	0.571359	0.396337	0.269697
331	H	0.542297	0.369758	0.269742
332	H	0.578947	0.412912	0.241117
333	N	0.545104	0.347306	0.01678
334	N	0.703021	0.502835	0.351801
335	N	0.977683	0.985891	0.351135
336	C	0.006616	0.970116	0.351042
337	N	0.050974	0.000686	0.351131
338	C	0.992578	0.924755	0.351805
339	H	0.015691	0.915972	0.354345
340	C	0.475294	0.2838	0.351584
341	N	0.493434	0.257228	0.351494
342	N	0.430152	0.263607	0.350797
343	C	0.502582	0.329599	0.353113
344	H	0.48918	0.348803	0.35712
345	N	0.779611	0.245077	0.351494
346	C	0.82464	0.265572	0.350579
347	N	0.843625	0.239268	0.349716
348	C	0.848554	0.311783	0.350407
349	H	0.8815	0.327722	0.349088
350	C	0.836509	0.561581	0.351611
351	N	0.791794	0.543429	0.351501
352	C	0.771301	0.567963	0.350552
353	N	0.797606	0.613251	0.349685
354	C	0.843035	0.633465	0.349841
355	N	0.861449	0.606724	0.350828
356	C	0.871635	0.679445	0.348519
357	C	0.855031	0.534301	0.353175
358	C	0.72509	0.545667	0.350334
359	H	0.709155	0.562673	0.348929
360	H	0.887625	0.547709	0.357265
361	H	0.90397	0.690282	0.345157
362	C	0.933341	0.848843	0.683531
363	C	0.922115	0.824774	0.641069
364	C	0.895912	0.777171	0.641504
365	C	0.88526	0.753829	0.351073
366	C	0.898593	0.777875	0.393528
367	C	0.920519	0.825504	0.3931
368	N	0.87964	0.753305	0.601589
369	H	0.881266	0.76719	0.572178
370	H	0.860883	0.721231	0.601672
371	N	0.937047	0.848066	0.600657
372	H	0.955455	0.880176	0.600095
373	H	0.934915	0.833795	0.571356
374	N	0.890217	0.754566	0.433936
375	H	0.875959	0.722409	0.434547
376	H	0.902733	0.768781	0.463165
377	N	0.92851	0.849394	0.43306
378	H	0.942517	0.881531	0.433094
379	H	0.916114	0.835552	0.462454
380	N	0.95148	0.893627	0.682848
381	N	0.859477	0.708896	0.351829
382	C	0.839077	0.45841	0.35157
383	C	0.833175	0.435387	0.394066
384	C	0.835681	0.395523	0.394553
385	C	0.839049	0.3768	0.685336
386	C	0.842774	0.39876	0.64257
387	C	0.845267	0.441151	0.64265
388	N	0.834556	0.374502	0.434948
389	H	0.837326	0.388076	0.464815
390	H	0.83815	0.348554	0.435386
391	N	0.823538	0.451078	0.433198
392	H	0.821526	0.47793	0.433246
393	H	0.814277	0.434361	0.46168
394	N	0.841962	0.377836	0.602224
395	H	0.840151	0.349082	0.601744
396	H	0.839308	0.388561	0.572267
397	N	0.852791	0.465376	0.603018
398	H	0.855574	0.494561	0.603149
399	H	0.862037	0.457828	0.574584
400	N	0.830232	0.491782	0.350127
401	N	0.82779	0.333849	0.68516
402	C	0.578491	0.389523	0.351515
403	C	0.601608	0.406543	0.393984
404	C	0.64145	0.448927	0.394467
405	C	0.66007	0.471146	0.685267
406	C	0.638003	0.452978	0.642536
407	C	0.595651	0.413038	0.642619
408	N	0.662515	0.468756	0.434875
409	H	0.648972	0.457882	0.464739
410	H	0.688425	0.498319	0.435345
411	N	0.58604	0.381146	0.433087
412	H	0.559241	0.352237	0.433097
413	H	0.602913	0.388484	0.46146
414	N	0.658819	0.473251	0.602207
415	H	0.687544	0.500232	0.601744
416	H	0.648008	0.46003	0.572209
417	N	0.571359	0.396337	0.603032
418	H	0.542297	0.369758	0.603073
419	H	0.578947	0.412912	0.574449
420	N	0.545104	0.347306	0.350113
421	N	0.703021	0.502835	0.685133
422	N	0.977683	0.985891	0.684466
423	C	0.006616	0.970116	0.684373
424	N	0.050974	0.000686	0.684466
425	C	0.992578	0.924755	0.685139
426	H	0.015691	0.915972	0.687676
427	C	0.475294	0.2838	0.684919
428	N	0.493434	0.257228	0.684825
429	N	0.430152	0.263607	0.684132
430	C	0.502582	0.329599	0.686444
431	H	0.48918	0.348803	0.690455
432	N	0.779611	0.245077	0.684829
433	C	0.82464	0.265572	0.683911
434	N	0.843625	0.239268	0.683051
435	C	0.848554	0.311783	0.683741
436	H	0.8815	0.327722	0.682423
437	C	0.836509	0.561581	0.684943
438	N	0.791794	0.543429	0.684832
439	C	0.771301	0.567963	0.683883
440	N	0.797606	0.613251	0.683017
441	C	0.843035	0.633465	0.683175
442	N	0.861449	0.606724	0.684159
443	C	0.871635	0.679445	0.681853
444	C	0.855031	0.534301	0.68651
445	C	0.72509	0.545667	0.683666
446	H	0.709155	0.562673	0.682264
447	H	0.887625	0.547709	0.6906
448	H	0.90397	0.690282	0.678492
449	C	0.933341	0.848843	0.016862
450	C	0.922115	0.824774	0.9744
451	C	0.895912	0.777171	0.974835
452	C	0.88526	0.753829	0.684404
453	C	0.898593	0.777875	0.726863
454	C	0.920519	0.825504	0.726431
455	N	0.87964	0.753305	0.934921
456	H	0.881266	0.76719	0.905513
457	H	0.860883	0.721231	0.935007
458	N	0.937047	0.848066	0.933989
459	H	0.955455	0.880176	0.933429
460	H	0.934915	0.833795	0.904688
461	N	0.890217	0.754566	0.767268
462	H	0.875959	0.722409	0.767879
463	H	0.902733	0.768781	0.796496
464	N	0.92851	0.849394	0.766391
465	H	0.942517	0.881531	0.766425
466	H	0.916114	0.835552	0.795789
467	N	0.95148	0.893627	0.016179
468	N	0.859477	0.708896	0.685164
469	C	0.839077	0.45841	0.684905
470	C	0.833175	0.435387	0.727401
471	C	0.835681	0.395523	0.727888
472	C	0.842774	0.39876	0.975905
473	C	0.845267	0.441151	0.975985
474	N	0.834556	0.374502	0.768282
475	H	0.837326	0.388076	0.798146
476	H	0.83815	0.348554	0.768717
477	N	0.823538	0.451078	0.766529
478	H	0.821526	0.47793	0.766581
479	H	0.814277	0.434361	0.795012
480	N	0.841962	0.377836	0.935559
481	H	0.840151	0.349082	0.935076
482	H	0.839308	0.388561	0.905599
483	N	0.852791	0.465376	0.936353
484	H	0.855574	0.494561	0.936484
485	H	0.862037	0.457828	0.907915
486	N	0.830232	0.491782	0.683458
487	C	0.578491	0.389523	0.684846
488	C	0.601608	0.406543	0.727315
489	C	0.64145	0.448927	0.727802
490	C	0.638003	0.452978	0.975867
491	C	0.595651	0.413038	0.97595
492	N	0.662515	0.468756	0.768206
493	H	0.648972	0.457882	0.79807
494	H	0.688425	0.498319	0.768676
495	N	0.58604	0.381146	0.766419
496	H	0.559241	0.352237	0.766432
497	H	0.602913	0.388484	0.794791
498	N	0.658819	0.473251	0.935538
499	H	0.687544	0.500232	0.935076
500	H	0.648008	0.46003	0.905544
501	N	0.571359	0.396337	0.936363
502	H	0.542297	0.369758	0.936408
503	H	0.578947	0.412912	0.907784
504	N	0.545104	0.347306	0.683445
