data_C270H216N54_2018-02-15_10:39:57
#******************************************
#
# CIF file created by Zeo++
# Zeo++ is an open source package to
# analyze microporous materials
#
#*******************************************

_cell_length_a		30.3367   
_cell_length_b		30.3368   
_cell_length_c		29.4578   
_cell_angle_alpha		90   
_cell_angle_beta		90   
_cell_angle_gamma		120   

_symmetry_space_group_name_H-M		'P1'
_symmetry_Int_Tables_number		1
_symmetry_cell_setting		Monoclinic

loop_
_symmetry_equiv_pos_as_xyz
'+x,+y,+z'

loop_
_atom_site_label
_atom_site_type_symbol
_atom_site_fract_x
_atom_site_fract_y
_atom_site_fract_z
1	C	0.05872	0.531766	0.101221
2	C	0.037751	0.521192	0.054643
3	H	0.045602	0.554573	0.119132
4	H	0.100217	0.552347	0.101788
5	H	0.045293	0.495923	0.119362
6	N	0.041607	0.522799	0.307498
7	C	0.067267	0.535683	0.014288
8	C	0.05872	0.531766	0.434557
9	C	0.037751	0.521192	0.387975
10	H	0.045602	0.554573	0.452467
11	H	0.100217	0.552347	0.43512
12	H	0.045293	0.495923	0.452695
13	N	0.041607	0.522799	0.640831
14	C	0.067267	0.535683	0.347622
15	C	0.05872	0.531766	0.767887
16	C	0.037751	0.521192	0.721309
17	H	0.045602	0.554573	0.785801
18	H	0.100217	0.552347	0.768454
19	H	0.045293	0.495923	0.786029
20	N	0.041607	0.522799	0.974165
21	C	0.067267	0.535683	0.680956
22	C	0.202156	0.562155	0.006211
23	C	0.22826	0.615873	0.004602
24	C	0.202516	0.643697	0.008265
25	C	0.1489	0.616612	0.012591
26	C	0.12139	0.562601	0.012798
27	C	0.148529	0.535789	0.010421
28	H	0.129734	0.636389	0.014566
29	H	0.129079	0.496783	0.010779
30	H	0.208411	0.546021	0.249675
31	H	0.199294	0.696673	0.098842
32	C	0.202156	0.562155	0.339543
33	C	0.22826	0.615873	0.337936
34	C	0.202516	0.643697	0.341597
35	C	0.1489	0.616612	0.345925
36	C	0.12139	0.562601	0.346132
37	C	0.148529	0.535789	0.343756
38	H	0.129734	0.636389	0.347901
39	H	0.129079	0.496783	0.344112
40	H	0.208411	0.546021	0.58301
41	H	0.199294	0.696673	0.432177
42	C	0.202156	0.562155	0.672877
43	C	0.22826	0.615873	0.671271
44	C	0.202516	0.643697	0.674931
45	C	0.1489	0.616612	0.679259
46	C	0.12139	0.562601	0.679466
47	C	0.148529	0.535789	0.677086
48	H	0.129734	0.636389	0.681235
49	H	0.129079	0.496783	0.677446
50	H	0.208411	0.546021	0.916344
51	H	0.199294	0.696673	0.765511
52	H	0.267282	0.635316	0.002063
53	C	0.245986	0.549553	0.250961
54	C	0.25981	0.542013	0.297315
55	H	0.274009	0.587303	0.238658
56	H	0.245696	0.520968	0.228289
57	H	0.290612	0.535698	0.12039
58	N	0.253744	0.537183	0.043635
59	C	0.231412	0.537845	0.337029
60	N	0.257643	0.717935	0.30178
61	C	0.23229	0.697308	0.00783
62	C	0.25607	0.724809	0.048049
63	C	0.238203	0.70451	0.094243
64	H	0.262078	0.731717	0.120231
65	H	0.239243	0.66937	0.099209
66	H	0.267282	0.635316	0.335395
67	C	0.245986	0.549553	0.584296
68	C	0.25981	0.542013	0.630651
69	H	0.274009	0.587303	0.57199
70	H	0.245696	0.520968	0.561623
71	H	0.290612	0.535698	0.453723
72	N	0.253744	0.537183	0.376969
73	C	0.231412	0.537845	0.670362
74	N	0.257643	0.717935	0.635115
75	C	0.23229	0.697308	0.341162
76	C	0.25607	0.724809	0.381382
77	C	0.238203	0.70451	0.427577
78	H	0.262078	0.731717	0.453564
79	H	0.239243	0.66937	0.432544
80	H	0.267282	0.635316	0.668729
81	C	0.245986	0.549553	0.917627
82	C	0.25981	0.542013	0.963985
83	H	0.274009	0.587303	0.905325
84	H	0.245696	0.520968	0.894957
85	H	0.290612	0.535698	0.787057
86	N	0.253744	0.537183	0.710303
87	C	0.231412	0.537845	0.003696
88	N	0.257643	0.717935	0.968449
89	C	0.23229	0.697308	0.674496
90	C	0.25607	0.724809	0.714716
91	C	0.238203	0.70451	0.760911
92	H	0.262078	0.731717	0.786898
93	H	0.239243	0.66937	0.765878
94	C	0.460844	0.644634	0.006527
95	C	0.407114	0.617061	0.005267
96	C	0.379293	0.563461	0.008648
97	C	0.40639	0.536908	0.012601
98	C	0.460398	0.563389	0.012581
99	C	0.487217	0.617335	0.010214
100	H	0.386619	0.497959	0.014482
101	H	0.526227	0.636873	0.010356
102	H	0.387674	0.636659	0.002959
103	C	0.378335	0.820784	0.006595
104	C	0.405887	0.794608	0.005261
105	C	0.45948	0.820358	0.008567
106	C	0.48609	0.874022	0.012375
107	C	0.459622	0.901564	0.012521
108	C	0.405661	0.874452	0.010366
109	H	0.525047	0.893179	0.014112
110	H	0.386135	0.893933	0.010642
111	H	0.386269	0.755563	0.00302
112	C	0.825303	0.456151	0.007766
113	C	0.799037	0.402406	0.007396
114	C	0.824901	0.374612	0.009758
115	C	0.878694	0.401702	0.011713
116	C	0.90626	0.455706	0.011038
117	C	0.879096	0.482528	0.009565
118	H	0.897895	0.38191	0.012651
119	H	0.898601	0.521531	0.008893
120	H	0.75994	0.382972	0.006106
121	C	0.56689	0.373801	0.007749
122	C	0.620634	0.401287	0.007413
123	C	0.648412	0.454952	0.009719
124	C	0.62131	0.481645	0.011554
125	C	0.567309	0.455188	0.010877
126	C	0.540496	0.4012	0.009484
127	H	0.641091	0.520641	0.012436
128	H	0.501493	0.381693	0.008818
129	H	0.64008	0.381636	0.006174
130	C	0.649252	0.197717	0.007912
131	C	0.62172	0.223929	0.0078
132	C	0.568044	0.197977	0.009917
133	C	0.541397	0.144175	0.011528
134	C	0.567905	0.116682	0.01076
135	C	0.621894	0.143911	0.009393
136	H	0.502402	0.124919	0.012409
137	H	0.641437	0.124455	0.008642
138	H	0.641343	0.263035	0.00672
139	N	0.986043	0.495451	0.050498
140	C	0.960421	0.482582	0.343712
141	C	0.989917	0.497141	0.303379
142	C	0.96732	0.485786	0.257405
143	H	0.943619	0.444732	0.252957
144	H	0.996757	0.500285	0.231195
145	H	0.943963	0.503489	0.25274
146	C	0.491149	0.531507	0.100994
147	C	0.501751	0.521132	0.054416
148	H	0.468317	0.495572	0.118886
149	H	0.470578	0.552434	0.101557
150	H	0.526979	0.553903	0.119157
151	N	0.527503	0.495173	0.050293
152	C	0.540417	0.482452	0.343515
153	C	0.525914	0.497422	0.30317
154	C	0.537322	0.486201	0.257208
155	H	0.578383	0.503562	0.252799
156	H	0.522849	0.501149	0.230983
157	H	0.519629	0.445143	0.252532
158	N	0.500243	0.523446	0.307264
159	C	0.487309	0.536181	0.014047
160	C	0.491408	0.964238	0.100908
161	C	0.501857	0.985196	0.054323
162	H	0.527316	0.977351	0.118852
163	H	0.470485	0.922742	0.101488
164	H	0.468984	0.977682	0.119012
165	N	0.527848	0.036903	0.05018
166	C	0.540668	0.062524	0.343393
167	C	0.525759	0.033034	0.30306
168	C	0.537043	0.055649	0.257094
169	H	0.5197	0.079361	0.252635
170	H	0.522122	0.026222	0.230876
171	H	0.578109	0.079001	0.252458
172	N	0.499695	0.98134	0.307172
173	C	0.486866	0.955686	0.013964
174	N	0.305475	0.544342	0.302096
175	C	0.325673	0.539504	0.008394
176	C	0.297894	0.53609	0.048288
177	C	0.317929	0.538789	0.094625
178	H	0.325664	0.507695	0.099605
179	H	0.353095	0.574964	0.099545
180	C	0.474165	0.700875	0.251
181	C	0.481378	0.722335	0.29729
182	H	0.436492	0.691104	0.23844
183	H	0.477724	0.666843	0.249948
184	H	0.502896	0.729133	0.228403
185	N	0.47892	0.765627	0.301851
186	C	0.483323	0.790593	0.008071
187	C	0.486511	0.766301	0.04816
188	C	0.483666	0.783699	0.094448
189	H	0.51471	0.82255	0.099416
190	H	0.486737	0.759545	0.120302
191	H	0.447453	0.782637	0.099253
192	N	0.485518	0.72109	0.043726
193	C	0.485241	0.698207	0.337174
194	C	0.322606	0.778081	0.251209
195	C	0.300978	0.763675	0.297441
196	H	0.33255	0.750296	0.238671
197	H	0.356553	0.815733	0.250244
198	H	0.294375	0.778489	0.228529
199	N	0.301374	0.768996	0.043909
200	C	0.32474	0.791533	0.337531
201	C	0.782952	0.470577	0.252395
202	C	0.768476	0.477356	0.298736
203	H	0.75503	0.433073	0.239509
204	H	0.820483	0.473995	0.251381
205	H	0.783669	0.499599	0.230037
206	N	0.722749	0.475015	0.303247
207	C	0.702038	0.478905	0.00958
208	C	0.729049	0.481227	0.049704
209	C	0.708572	0.477885	0.095965
210	H	0.700879	0.50897	0.101235
211	H	0.735615	0.480553	0.121834
212	H	0.673326	0.441695	0.100437
213	N	0.773212	0.480176	0.045226
214	C	0.796143	0.480568	0.338679
215	C	0.55268	0.316822	0.252519
216	C	0.5457	0.295656	0.298911
217	H	0.59022	0.326331	0.239784
218	H	0.549316	0.350963	0.251352
219	H	0.523722	0.288493	0.23013
220	N	0.548006	0.252275	0.303643
221	C	0.544017	0.227551	0.009975
222	C	0.54184	0.252593	0.049923
223	C	0.545143	0.235525	0.096215
224	H	0.513977	0.196801	0.101557
225	H	0.542595	0.260017	0.122033
226	H	0.581276	0.236347	0.100701
227	N	0.542875	0.297786	0.045356
228	C	0.542478	0.320217	0.338761
229	C	0.705822	0.239973	0.252577
230	C	0.727155	0.254468	0.298894
231	H	0.696181	0.267868	0.239734
232	H	0.671733	0.202425	0.251589
233	H	0.734106	0.239291	0.230166
234	N	0.770524	0.300219	0.303363
235	C	0.795203	0.320985	0.009665
236	C	0.77059	0.294024	0.04984
237	C	0.787934	0.31455	0.096054
238	H	0.826709	0.322185	0.101195
239	H	0.763631	0.287561	0.12199
240	H	0.787072	0.349836	0.100555
241	N	0.725379	0.249836	0.045488
242	C	0.702853	0.226967	0.338947
243	C	0.460844	0.644634	0.339859
244	C	0.407114	0.617061	0.338599
245	C	0.379293	0.563461	0.34198
246	C	0.40639	0.536908	0.345935
247	C	0.460398	0.563389	0.345915
248	C	0.487217	0.617335	0.343549
249	H	0.386619	0.497959	0.347816
250	H	0.526227	0.636873	0.343688
251	H	0.387674	0.636659	0.33629
252	C	0.378335	0.820784	0.339927
253	C	0.405887	0.794608	0.338594
254	C	0.45948	0.820358	0.341899
255	C	0.48609	0.874022	0.345708
256	C	0.459622	0.901564	0.345854
257	C	0.405661	0.874452	0.343701
258	H	0.525047	0.893179	0.347446
259	H	0.386135	0.893933	0.343976
260	H	0.386269	0.755563	0.336352
261	C	0.825303	0.456151	0.341098
262	C	0.799037	0.402406	0.340731
263	C	0.824901	0.374612	0.34309
264	C	0.878694	0.401702	0.345046
265	C	0.90626	0.455706	0.34437
266	C	0.879096	0.482528	0.342897
267	H	0.897895	0.38191	0.345983
268	H	0.898601	0.521531	0.342228
269	H	0.75994	0.382972	0.339438
270	C	0.56689	0.373801	0.341081
271	C	0.620634	0.401287	0.340745
272	C	0.648412	0.454952	0.343053
273	C	0.62131	0.481645	0.344886
274	C	0.567309	0.455188	0.344211
275	C	0.540496	0.4012	0.342819
276	H	0.641091	0.520641	0.345769
277	H	0.501493	0.381693	0.342153
278	H	0.64008	0.381636	0.339509
279	C	0.649252	0.197717	0.341244
280	C	0.62172	0.223929	0.341132
281	C	0.568044	0.197977	0.34325
282	C	0.541397	0.144175	0.344862
283	C	0.567905	0.116682	0.344095
284	C	0.621894	0.143911	0.342727
285	H	0.502402	0.124919	0.345742
286	H	0.641437	0.124455	0.341974
287	H	0.641343	0.263035	0.340056
288	N	0.986043	0.495451	0.383833
289	C	0.960421	0.482582	0.677046
290	C	0.989917	0.497141	0.636713
291	C	0.96732	0.485786	0.590739
292	H	0.943619	0.444732	0.586292
293	H	0.996757	0.500285	0.564529
294	H	0.943963	0.503489	0.586075
295	C	0.491149	0.531507	0.434326
296	C	0.501751	0.521132	0.387751
297	H	0.468317	0.495572	0.452219
298	H	0.470578	0.552434	0.434889
299	H	0.526979	0.553903	0.452491
300	N	0.527503	0.495173	0.383626
301	C	0.540417	0.482452	0.676849
302	C	0.525914	0.497422	0.636503
303	C	0.537322	0.486201	0.590542
304	H	0.578383	0.503562	0.586133
305	H	0.522849	0.501149	0.564318
306	H	0.519629	0.445143	0.585865
307	N	0.500243	0.523446	0.640597
308	C	0.487309	0.536181	0.347381
309	C	0.491408	0.964238	0.434241
310	C	0.501857	0.985196	0.387656
311	H	0.527316	0.977351	0.452185
312	H	0.470485	0.922742	0.434821
313	H	0.468984	0.977682	0.452345
314	N	0.527848	0.036903	0.383514
315	C	0.540668	0.062524	0.676727
316	C	0.525759	0.033034	0.636394
317	C	0.537043	0.055649	0.590427
318	H	0.5197	0.079361	0.58597
319	H	0.522122	0.026222	0.56421
320	H	0.578109	0.079001	0.58579
321	N	0.499695	0.98134	0.640505
322	C	0.486866	0.955686	0.347296
323	N	0.305475	0.544342	0.63543
324	C	0.325673	0.539504	0.341726
325	C	0.297894	0.53609	0.38162
326	C	0.317929	0.538789	0.427957
327	H	0.325664	0.507695	0.432937
328	H	0.353095	0.574964	0.43288
329	C	0.474165	0.700875	0.584334
330	C	0.481378	0.722335	0.630623
331	H	0.436492	0.691104	0.571773
332	H	0.477724	0.666843	0.583281
333	H	0.502896	0.729133	0.561738
334	N	0.47892	0.765627	0.635186
335	C	0.483323	0.790593	0.341407
336	C	0.486511	0.766301	0.381494
337	C	0.483666	0.783699	0.427781
338	H	0.51471	0.82255	0.432751
339	H	0.486737	0.759545	0.453635
340	H	0.447453	0.782637	0.432588
341	N	0.485518	0.72109	0.377061
342	C	0.485241	0.698207	0.670508
343	C	0.322606	0.778081	0.584544
344	C	0.300978	0.763675	0.630776
345	H	0.33255	0.750296	0.572004
346	H	0.356553	0.815733	0.583576
347	H	0.294375	0.778489	0.561864
348	N	0.301374	0.768996	0.377241
349	C	0.32474	0.791533	0.670864
350	C	0.782952	0.470577	0.585729
351	C	0.768476	0.477356	0.63207
352	H	0.75503	0.433073	0.572843
353	H	0.820483	0.473995	0.584714
354	H	0.783669	0.499599	0.563371
355	N	0.722749	0.475015	0.636581
356	C	0.702038	0.478905	0.342914
357	C	0.729049	0.481227	0.383039
358	C	0.708572	0.477885	0.429298
359	H	0.700879	0.50897	0.434567
360	H	0.735615	0.480553	0.455169
361	H	0.673326	0.441695	0.433773
362	N	0.773212	0.480176	0.378561
363	C	0.796143	0.480568	0.672011
364	C	0.55268	0.316822	0.585851
365	C	0.5457	0.295656	0.632243
366	H	0.59022	0.326331	0.573117
367	H	0.549316	0.350963	0.584687
368	H	0.523722	0.288493	0.563463
369	N	0.548006	0.252275	0.636975
370	C	0.544017	0.227551	0.343308
371	C	0.54184	0.252593	0.383256
372	C	0.545143	0.235525	0.42955
373	H	0.513977	0.196801	0.434889
374	H	0.542595	0.260017	0.455366
375	H	0.581276	0.236347	0.434034
376	N	0.542875	0.297786	0.37869
377	C	0.542478	0.320217	0.672096
378	C	0.705822	0.239973	0.585912
379	C	0.727155	0.254468	0.632229
380	H	0.696181	0.267868	0.573067
381	H	0.671733	0.202425	0.584924
382	H	0.734106	0.239291	0.5635
383	N	0.770524	0.300219	0.636696
384	C	0.795203	0.320985	0.342999
385	C	0.77059	0.294024	0.383175
386	C	0.787934	0.31455	0.429387
387	H	0.826709	0.322185	0.43453
388	H	0.763631	0.287561	0.455322
389	H	0.787072	0.349836	0.433888
390	N	0.725379	0.249836	0.378823
391	C	0.702853	0.226967	0.67228
392	C	0.460844	0.644634	0.673193
393	C	0.407114	0.617061	0.671933
394	C	0.379293	0.563461	0.675314
395	C	0.40639	0.536908	0.679269
396	C	0.460398	0.563389	0.679249
397	C	0.487217	0.617335	0.676879
398	H	0.386619	0.497959	0.68115
399	H	0.526227	0.636873	0.677022
400	H	0.387674	0.636659	0.669625
401	C	0.378335	0.820784	0.673261
402	C	0.405887	0.794608	0.671927
403	C	0.45948	0.820358	0.675233
404	C	0.48609	0.874022	0.679042
405	C	0.459622	0.901564	0.679188
406	C	0.405661	0.874452	0.677032
407	H	0.525047	0.893179	0.68078
408	H	0.386135	0.893933	0.67731
409	H	0.386269	0.755563	0.669686
410	C	0.825303	0.456151	0.674432
411	C	0.799037	0.402406	0.674065
412	C	0.824901	0.374612	0.676424
413	C	0.878694	0.401702	0.67838
414	C	0.90626	0.455706	0.677704
415	C	0.879096	0.482528	0.676231
416	H	0.897895	0.38191	0.679317
417	H	0.898601	0.521531	0.675562
418	H	0.75994	0.382972	0.672772
419	C	0.56689	0.373801	0.674415
420	C	0.620634	0.401287	0.674079
421	C	0.648412	0.454952	0.676387
422	C	0.62131	0.481645	0.67822
423	C	0.567309	0.455188	0.677545
424	C	0.540496	0.4012	0.676149
425	H	0.641091	0.520641	0.679103
426	H	0.501493	0.381693	0.675488
427	H	0.64008	0.381636	0.67284
428	C	0.649252	0.197717	0.674578
429	C	0.62172	0.223929	0.674466
430	C	0.568044	0.197977	0.676584
431	C	0.541397	0.144175	0.678196
432	C	0.567905	0.116682	0.677426
433	C	0.621894	0.143911	0.676061
434	H	0.502402	0.124919	0.679076
435	H	0.641437	0.124455	0.675308
436	H	0.641343	0.263035	0.67339
437	N	0.986043	0.495451	0.717164
438	C	0.960421	0.482582	0.010377
439	C	0.989917	0.497141	0.970048
440	C	0.96732	0.485786	0.924073
441	H	0.943619	0.444732	0.919626
442	H	0.996757	0.500285	0.897863
443	H	0.943963	0.503489	0.919406
444	C	0.491149	0.531507	0.76766
445	C	0.501751	0.521132	0.721085
446	H	0.468317	0.495572	0.785553
447	H	0.470578	0.552434	0.768223
448	H	0.526979	0.553903	0.785825
449	N	0.527503	0.495173	0.71696
450	C	0.540417	0.482452	0.010181
451	C	0.525914	0.497422	0.969837
452	C	0.537322	0.486201	0.923876
453	H	0.578383	0.503562	0.919467
454	H	0.522849	0.501149	0.897649
455	H	0.519629	0.445143	0.919199
456	N	0.500243	0.523446	0.973931
457	C	0.487309	0.536181	0.680715
458	C	0.491408	0.964238	0.767575
459	C	0.501857	0.985196	0.72099
460	H	0.527316	0.977351	0.785519
461	H	0.470485	0.922742	0.768156
462	H	0.468984	0.977682	0.785679
463	N	0.527848	0.036903	0.716848
464	C	0.540668	0.062524	0.01006
465	C	0.525759	0.033034	0.969728
466	C	0.537043	0.055649	0.923761
467	H	0.5197	0.079361	0.919304
468	H	0.522122	0.026222	0.897544
469	H	0.578109	0.079001	0.919124
470	N	0.499695	0.98134	0.973839
471	C	0.486866	0.955686	0.68063
472	N	0.305475	0.544342	0.968764
473	C	0.325673	0.539504	0.67506
474	C	0.297894	0.53609	0.714954
475	C	0.317929	0.538789	0.761292
476	H	0.325664	0.507695	0.766272
477	H	0.353095	0.574964	0.766214
478	C	0.474165	0.700875	0.917668
479	C	0.481378	0.722335	0.963957
480	H	0.436492	0.691104	0.905107
481	H	0.477724	0.666843	0.916615
482	H	0.502896	0.729133	0.895073
483	N	0.47892	0.765627	0.96852
484	C	0.483323	0.790593	0.674737
485	C	0.486511	0.766301	0.714828
486	C	0.483666	0.783699	0.761115
487	H	0.51471	0.82255	0.766085
488	H	0.486737	0.759545	0.786969
489	H	0.447453	0.782637	0.765922
490	N	0.485518	0.72109	0.710395
491	C	0.485241	0.698207	0.003842
492	C	0.322606	0.778081	0.917875
493	C	0.300978	0.763675	0.96411
494	H	0.33255	0.750296	0.905338
495	H	0.356553	0.815733	0.916911
496	H	0.294375	0.778489	0.895198
497	N	0.301374	0.768996	0.710575
498	C	0.32474	0.791533	0.004198
499	C	0.782952	0.470577	0.919063
500	C	0.768476	0.477356	0.965404
501	H	0.75503	0.433073	0.906177
502	H	0.820483	0.473995	0.918048
503	H	0.783669	0.499599	0.896705
504	N	0.722749	0.475015	0.969915
505	C	0.702038	0.478905	0.676248
506	C	0.729049	0.481227	0.716373
507	C	0.708572	0.477885	0.762632
508	H	0.700879	0.50897	0.767901
509	H	0.735615	0.480553	0.7885
510	H	0.673326	0.441695	0.767103
511	N	0.773212	0.480176	0.711895
512	C	0.796143	0.480568	0.005345
513	C	0.55268	0.316822	0.919185
514	C	0.5457	0.295656	0.965577
515	H	0.59022	0.326331	0.906452
516	H	0.549316	0.350963	0.918021
517	H	0.523722	0.288493	0.896797
518	N	0.548006	0.252275	0.970309
519	C	0.544017	0.227551	0.676642
520	C	0.54184	0.252593	0.71659
521	C	0.545143	0.235525	0.762884
522	H	0.513977	0.196801	0.768223
523	H	0.542595	0.260017	0.7887
524	H	0.581276	0.236347	0.767368
525	N	0.542875	0.297786	0.712024
526	C	0.542478	0.320217	0.00543
527	C	0.705822	0.239973	0.919243
528	C	0.727155	0.254468	0.965563
529	H	0.696181	0.267868	0.906401
530	H	0.671733	0.202425	0.918258
531	H	0.734106	0.239291	0.896834
532	N	0.770524	0.300219	0.970031
533	C	0.795203	0.320985	0.676333
534	C	0.77059	0.294024	0.716509
535	C	0.787934	0.31455	0.762721
536	H	0.826709	0.322185	0.767864
537	H	0.763631	0.287561	0.788656
538	H	0.787072	0.349836	0.767222
539	N	0.725379	0.249836	0.712157
540	C	0.702853	0.226967	0.005614
