data_C252H144N144O36_2018-02-15_10:37:59
#******************************************
#
# CIF file created by Zeo++
# Zeo++ is an open source package to
# analyze microporous materials
#
#*******************************************

_cell_length_a		29.0819   
_cell_length_b		29.082   
_cell_length_c		29.7094   
_cell_angle_alpha		90   
_cell_angle_beta		90   
_cell_angle_gamma		120   

_symmetry_space_group_name_H-M		'P1'
_symmetry_Int_Tables_number		1
_symmetry_cell_setting		Monoclinic

loop_
_symmetry_equiv_pos_as_xyz
'+x,+y,+z'

loop_
_atom_site_label
_atom_site_type_symbol
_atom_site_fract_x
_atom_site_fract_y
_atom_site_fract_z
1	C	0.032233	0.308622	0.351741
2	C	0.063304	0.283722	0.018765
3	N	0.036372	0.22971	0.019579
4	H	0.04908	0.348984	0.351142
5	C	0.032233	0.308622	0.685073
6	C	0.063304	0.283722	0.352097
7	N	0.036372	0.22971	0.352912
8	H	0.04908	0.348984	0.684474
9	C	0.032233	0.308622	0.018406
10	C	0.063304	0.283722	0.68543
11	N	0.036372	0.22971	0.686244
12	H	0.04908	0.348984	0.017807
13	C	0.032232	0.808621	0.351741
14	C	0.063304	0.783722	0.018766
15	N	0.036372	0.729711	0.01958
16	H	0.049078	0.848985	0.351142
17	C	0.032232	0.808621	0.685073
18	C	0.063304	0.783722	0.352097
19	N	0.036372	0.729711	0.352912
20	H	0.049078	0.848985	0.684474
21	C	0.032232	0.808621	0.018407
22	C	0.063304	0.783722	0.685433
23	N	0.036372	0.729711	0.686248
24	H	0.049078	0.848985	0.017808
25	C	0.119284	0.311549	0.01855
26	C	0.119284	0.311549	0.351882
27	C	0.119284	0.311549	0.685218
28	C	0.119282	0.811547	0.018551
29	C	0.119282	0.811547	0.351885
30	C	0.119282	0.811547	0.685218
31	N	0.147958	0.365552	0.018565
32	N	0.146598	0.284821	0.018549
33	N	0.147958	0.365552	0.351899
34	N	0.146598	0.284821	0.351882
35	N	0.147958	0.365552	0.685231
36	N	0.146598	0.284821	0.685214
37	N	0.147958	0.86555	0.018566
38	N	0.146598	0.784822	0.018548
39	N	0.147958	0.86555	0.351899
40	N	0.146598	0.784822	0.351882
41	N	0.147958	0.86555	0.685231
42	N	0.146598	0.784822	0.685214
43	C	0.202	0.392866	0.018524
44	C	0.2006	0.310149	0.018503
45	N	0.227328	0.364191	0.018507
46	C	0.311422	0.11677	0.018829
47	N	0.36544	0.143161	0.018774
48	C	0.39538	0.197066	0.018778
49	N	0.36899	0.224693	0.018731
50	C	0.315085	0.200729	0.018777
51	N	0.287457	0.146711	0.018789
52	C	0.288102	0.229801	0.019057
53	N	0.233992	0.20275	0.351811
54	C	0.203528	0.226025	0.351774
55	C	0.228428	0.281998	0.018705
56	N	0.282441	0.309078	0.019421
57	C	0.313199	0.28602	0.020138
58	H	0.163165	0.202508	0.351256
59	O	0.367107	0.318634	0.020416
60	C	0.388097	0.337616	0.064671
61	H	0.431088	0.362279	0.061901
62	H	0.379388	0.30487	0.087649
63	H	0.37261	0.361906	0.078736
64	C	0.282355	0.060715	0.019149
65	N	0.309402	0.033656	0.351734
66	C	0.286124	0.479915	0.35168
67	C	0.230154	0.448846	0.018749
68	N	0.203077	0.475778	0.019658
69	C	0.226142	0.029595	0.020426
70	H	0.309638	0.463068	0.35103
71	O	0.193525	0.050879	0.02101
72	C	0.175025	0.053038	0.065437
73	H	0.150312	0.071333	0.062918
74	H	0.208016	0.077172	0.08817
75	H	0.150909	0.01331	0.079647
76	C	0.451435	0.224051	0.019086
77	N	0.478494	0.278159	0.351758
78	C	0.482555	0.198956	0.020293
79	O	0.461266	0.145051	0.020746
80	C	0.459156	0.124244	0.0651
81	H	0.440844	0.081244	0.062471
82	H	0.435058	0.133039	0.087932
83	H	0.498898	0.139798	0.079257
84	C	0.202	0.392866	0.351855
85	C	0.2006	0.310149	0.351835
86	N	0.227328	0.364191	0.351842
87	C	0.311422	0.11677	0.352161
88	N	0.36544	0.143161	0.352108
89	C	0.39538	0.197066	0.352111
90	N	0.36899	0.224693	0.352064
91	C	0.315085	0.200729	0.352111
92	N	0.287457	0.146711	0.352121
93	C	0.288102	0.229801	0.35239
94	N	0.233992	0.20275	0.685144
95	C	0.203528	0.226025	0.68511
96	C	0.228428	0.281998	0.352037
97	N	0.282441	0.309078	0.352754
98	C	0.313199	0.28602	0.353471
99	H	0.163165	0.202508	0.684592
100	O	0.367107	0.318634	0.35375
101	C	0.388097	0.337616	0.398006
102	H	0.431088	0.362279	0.395235
103	H	0.379388	0.30487	0.420981
104	H	0.37261	0.361906	0.412068
105	C	0.282355	0.060715	0.352481
106	N	0.309402	0.033656	0.685066
107	C	0.286124	0.479915	0.685012
108	C	0.230154	0.448846	0.352081
109	N	0.203077	0.475778	0.352993
110	C	0.226142	0.029595	0.35376
111	H	0.309638	0.463068	0.684363
112	O	0.193525	0.050879	0.354343
113	C	0.175025	0.053038	0.39877
114	H	0.150312	0.071333	0.396252
115	H	0.208016	0.077172	0.421503
116	H	0.150909	0.01331	0.412981
117	C	0.451435	0.224051	0.352421
118	N	0.478494	0.278159	0.68509
119	C	0.482555	0.198956	0.353626
120	O	0.461266	0.145051	0.35408
121	C	0.459156	0.124244	0.398433
122	H	0.440844	0.081244	0.395804
123	H	0.435058	0.133039	0.421264
124	H	0.498898	0.139798	0.41259
125	C	0.202	0.392866	0.685191
126	C	0.2006	0.310149	0.685171
127	N	0.227328	0.364191	0.685174
128	C	0.311422	0.11677	0.685494
129	N	0.36544	0.143161	0.68544
130	C	0.39538	0.197066	0.685443
131	N	0.36899	0.224693	0.685396
132	C	0.315085	0.200729	0.685443
133	N	0.287457	0.146711	0.685457
134	C	0.288102	0.229801	0.685723
135	N	0.233992	0.20275	0.018479
136	C	0.203528	0.226025	0.018442
137	C	0.228428	0.281998	0.685373
138	N	0.282441	0.309078	0.686086
139	C	0.313199	0.28602	0.686803
140	H	0.163165	0.202508	0.017924
141	O	0.367107	0.318634	0.687083
142	C	0.388097	0.337616	0.731338
143	H	0.431088	0.362279	0.728568
144	H	0.379388	0.30487	0.754314
145	H	0.37261	0.361906	0.745404
146	C	0.282355	0.060715	0.685817
147	N	0.309402	0.033656	0.0184
148	C	0.286124	0.479915	0.018346
149	C	0.230154	0.448846	0.685416
150	N	0.203077	0.475778	0.686325
151	C	0.226142	0.029595	0.687093
152	H	0.309638	0.463068	0.017696
153	O	0.193525	0.050879	0.687675
154	C	0.175025	0.053038	0.732102
155	H	0.150312	0.071333	0.729584
156	H	0.208016	0.077172	0.754836
157	H	0.150909	0.01331	0.746313
158	C	0.451435	0.224051	0.685753
159	N	0.478494	0.278159	0.018424
160	C	0.482555	0.198956	0.686958
161	O	0.461266	0.145051	0.687412
162	C	0.459156	0.124244	0.731765
163	H	0.440844	0.081244	0.729137
164	H	0.435058	0.133039	0.7546
165	H	0.498898	0.139798	0.745923
166	C	0.201999	0.892863	0.018524
167	C	0.2006	0.81015	0.0185
168	N	0.227327	0.864188	0.018505
169	C	0.311422	0.61677	0.018824
170	N	0.36544	0.643162	0.018772
171	C	0.39538	0.697066	0.018776
172	N	0.368989	0.724693	0.018727
173	C	0.315083	0.700727	0.018771
174	N	0.287456	0.646708	0.018783
175	C	0.2881	0.729799	0.01905
176	N	0.23399	0.702748	0.351808
177	C	0.203526	0.726023	0.351771
178	C	0.228426	0.781995	0.0187
179	N	0.282441	0.809078	0.019414
180	C	0.313198	0.786017	0.02013
181	H	0.163163	0.702505	0.351253
182	O	0.367107	0.818635	0.020405
183	C	0.388101	0.837622	0.064658
184	H	0.43109	0.862283	0.061885
185	H	0.379392	0.804877	0.087639
186	H	0.372614	0.861913	0.078722
187	C	0.282355	0.560715	0.019144
188	N	0.309403	0.533656	0.351734
189	C	0.286124	0.979913	0.351677
190	C	0.230154	0.948844	0.018751
191	N	0.203077	0.975775	0.019666
192	C	0.226142	0.529594	0.020416
193	H	0.309638	0.963066	0.35102
194	O	0.193525	0.55088	0.02099
195	C	0.17501	0.553036	0.065411
196	H	0.150298	0.571328	0.062884
197	H	0.207993	0.577165	0.088152
198	H	0.150888	0.513303	0.079618
199	C	0.451434	0.724049	0.019085
200	N	0.478494	0.778159	0.351758
201	C	0.482555	0.698956	0.020293
202	O	0.461266	0.645052	0.020746
203	C	0.459152	0.624243	0.065101
204	H	0.44084	0.581242	0.062472
205	H	0.435054	0.633037	0.087932
206	H	0.498896	0.639795	0.079259
207	C	0.201999	0.892863	0.351859
208	C	0.2006	0.81015	0.351835
209	N	0.227327	0.864188	0.351838
210	C	0.311422	0.61677	0.352158
211	N	0.36544	0.643162	0.352104
212	C	0.39538	0.697066	0.352111
213	N	0.368989	0.724693	0.35206
214	C	0.315083	0.700727	0.352104
215	N	0.287456	0.646708	0.352118
216	C	0.2881	0.729799	0.352384
217	N	0.23399	0.702748	0.68514
218	C	0.203526	0.726023	0.685103
219	C	0.228426	0.781995	0.352034
220	N	0.282441	0.809078	0.352747
221	C	0.313198	0.786017	0.353464
222	H	0.163163	0.702505	0.684588
223	O	0.367107	0.818635	0.353737
224	C	0.388101	0.837622	0.397992
225	H	0.43109	0.862283	0.395219
226	H	0.379392	0.804877	0.420971
227	H	0.372614	0.861913	0.412055
228	C	0.282355	0.560715	0.352478
229	N	0.309403	0.533656	0.685066
230	C	0.286124	0.979913	0.685009
231	C	0.230154	0.948844	0.352084
232	N	0.203077	0.975775	0.353
233	C	0.226142	0.529594	0.35375
234	H	0.309638	0.963066	0.684356
235	O	0.193525	0.55088	0.354322
236	C	0.17501	0.553036	0.398743
237	H	0.150298	0.571328	0.396218
238	H	0.207993	0.577165	0.421486
239	H	0.150888	0.513303	0.41295
240	C	0.451434	0.724049	0.352417
241	N	0.478494	0.778159	0.68509
242	C	0.482555	0.698956	0.353626
243	O	0.461266	0.645052	0.35408
244	C	0.459152	0.624243	0.398433
245	H	0.44084	0.581242	0.395804
246	H	0.435054	0.633037	0.421264
247	H	0.498896	0.639795	0.412594
248	C	0.201999	0.892863	0.685191
249	C	0.2006	0.81015	0.685167
250	N	0.227327	0.864188	0.685171
251	C	0.311422	0.61677	0.68549
252	N	0.36544	0.643162	0.685437
253	C	0.39538	0.697066	0.685443
254	N	0.368989	0.724693	0.685393
255	C	0.315083	0.700727	0.685437
256	N	0.287456	0.646708	0.68545
257	C	0.2881	0.729799	0.685716
258	N	0.23399	0.702748	0.018474
259	C	0.203526	0.726023	0.018438
260	C	0.228426	0.781995	0.685366
261	N	0.282441	0.809078	0.686079
262	C	0.313198	0.786017	0.686796
263	H	0.163163	0.702505	0.017921
264	O	0.367107	0.818635	0.687072
265	C	0.388101	0.837622	0.731324
266	H	0.43109	0.862283	0.728551
267	H	0.379392	0.804877	0.754307
268	H	0.372614	0.861913	0.745387
269	C	0.282355	0.560715	0.68581
270	N	0.309403	0.533656	0.018401
271	C	0.286124	0.979913	0.018343
272	C	0.230154	0.948844	0.685416
273	N	0.203077	0.975775	0.686332
274	C	0.226142	0.529594	0.687083
275	H	0.309638	0.963066	0.017689
276	O	0.193525	0.55088	0.687655
277	C	0.17501	0.553036	0.732078
278	H	0.150298	0.571328	0.729551
279	H	0.207993	0.577165	0.754819
280	H	0.150888	0.513303	0.746283
281	C	0.451434	0.724049	0.685753
282	N	0.478494	0.778159	0.018424
283	C	0.482555	0.698956	0.686958
284	O	0.461266	0.645052	0.687412
285	C	0.459152	0.624243	0.731765
286	H	0.44084	0.581242	0.729137
287	H	0.435054	0.633037	0.7546
288	H	0.498896	0.639795	0.745926
289	C	0.702002	0.392866	0.018524
290	N	0.647959	0.365552	0.018565
291	C	0.619283	0.311549	0.01855
292	N	0.646597	0.284821	0.018549
293	C	0.7006	0.310149	0.018503
294	N	0.727329	0.364191	0.018507
295	C	0.811424	0.11677	0.018829
296	N	0.865439	0.143161	0.018774
297	C	0.895379	0.197066	0.018778
298	N	0.868989	0.224693	0.018731
299	C	0.815084	0.200729	0.018777
300	N	0.787456	0.146711	0.018789
301	C	0.788103	0.229801	0.019057
302	N	0.733992	0.20275	0.351811
303	C	0.703528	0.226025	0.351774
304	C	0.728427	0.281998	0.018705
305	N	0.782442	0.309078	0.019421
306	C	0.8132	0.28602	0.020138
307	H	0.663164	0.202508	0.351256
308	O	0.867108	0.318634	0.020416
309	C	0.888098	0.337616	0.064671
310	H	0.931088	0.362279	0.061901
311	H	0.87939	0.30487	0.087649
312	H	0.872611	0.361906	0.078736
313	C	0.782355	0.060715	0.019149
314	N	0.809403	0.033656	0.351734
315	C	0.786126	0.479915	0.35168
316	C	0.730154	0.448846	0.018749
317	N	0.703076	0.475778	0.019658
318	C	0.726144	0.029595	0.020426
319	H	0.80964	0.463068	0.35103
320	O	0.693525	0.050879	0.02101
321	C	0.675026	0.053038	0.065437
322	H	0.650313	0.071333	0.062918
323	H	0.708016	0.077172	0.08817
324	H	0.650908	0.01331	0.079647
325	C	0.951435	0.224051	0.019086
326	N	0.978496	0.278159	0.351758
327	C	0.532234	0.308622	0.351741
328	C	0.563306	0.283722	0.018765
329	N	0.536372	0.22971	0.019579
330	C	0.982557	0.198956	0.020293
331	H	0.54908	0.348984	0.351142
332	O	0.961264	0.145051	0.020746
333	C	0.959154	0.124244	0.0651
334	H	0.940842	0.081244	0.062471
335	H	0.935056	0.133039	0.087932
336	H	0.9989	0.139798	0.079257
337	C	0.702002	0.392866	0.351855
338	N	0.647959	0.365552	0.351899
339	C	0.619283	0.311549	0.351882
340	N	0.646597	0.284821	0.351882
341	C	0.7006	0.310149	0.351835
342	N	0.727329	0.364191	0.351842
343	C	0.811424	0.11677	0.352161
344	N	0.865439	0.143161	0.352108
345	C	0.895379	0.197066	0.352111
346	N	0.868989	0.224693	0.352064
347	C	0.815084	0.200729	0.352111
348	N	0.787456	0.146711	0.352121
349	C	0.788103	0.229801	0.35239
350	N	0.733992	0.20275	0.685144
351	C	0.703528	0.226025	0.68511
352	C	0.728427	0.281998	0.352037
353	N	0.782442	0.309078	0.352754
354	C	0.8132	0.28602	0.353471
355	H	0.663164	0.202508	0.684592
356	O	0.867108	0.318634	0.35375
357	C	0.888098	0.337616	0.398006
358	H	0.931088	0.362279	0.395235
359	H	0.87939	0.30487	0.420981
360	H	0.872611	0.361906	0.412068
361	C	0.782355	0.060715	0.352481
362	N	0.809403	0.033656	0.685066
363	C	0.786126	0.479915	0.685012
364	C	0.730154	0.448846	0.352081
365	N	0.703076	0.475778	0.352993
366	C	0.726144	0.029595	0.35376
367	H	0.80964	0.463068	0.684363
368	O	0.693525	0.050879	0.354343
369	C	0.675026	0.053038	0.39877
370	H	0.650313	0.071333	0.396252
371	H	0.708016	0.077172	0.421503
372	H	0.650908	0.01331	0.412981
373	C	0.951435	0.224051	0.352421
374	N	0.978496	0.278159	0.68509
375	C	0.532234	0.308622	0.685073
376	C	0.563306	0.283722	0.352097
377	N	0.536372	0.22971	0.352912
378	C	0.982557	0.198956	0.353626
379	H	0.54908	0.348984	0.684474
380	O	0.961264	0.145051	0.35408
381	C	0.959154	0.124244	0.398433
382	H	0.940842	0.081244	0.395804
383	H	0.935056	0.133039	0.421264
384	H	0.9989	0.139798	0.41259
385	C	0.702002	0.392866	0.685191
386	N	0.647959	0.365552	0.685231
387	C	0.619283	0.311549	0.685218
388	N	0.646597	0.284821	0.685214
389	C	0.7006	0.310149	0.685171
390	N	0.727329	0.364191	0.685174
391	C	0.811424	0.11677	0.685494
392	N	0.865439	0.143161	0.68544
393	C	0.895379	0.197066	0.685443
394	N	0.868989	0.224693	0.685396
395	C	0.815084	0.200729	0.685443
396	N	0.787456	0.146711	0.685457
397	C	0.788103	0.229801	0.685723
398	N	0.733992	0.20275	0.018479
399	C	0.703528	0.226025	0.018442
400	C	0.728427	0.281998	0.685373
401	N	0.782442	0.309078	0.686086
402	C	0.8132	0.28602	0.686803
403	H	0.663164	0.202508	0.017924
404	O	0.867108	0.318634	0.687083
405	C	0.888098	0.337616	0.731338
406	H	0.931088	0.362279	0.728568
407	H	0.87939	0.30487	0.754314
408	H	0.872611	0.361906	0.745404
409	C	0.782355	0.060715	0.685817
410	N	0.809403	0.033656	0.0184
411	C	0.786126	0.479915	0.018346
412	C	0.730154	0.448846	0.685416
413	N	0.703076	0.475778	0.686325
414	C	0.726144	0.029595	0.687093
415	H	0.80964	0.463068	0.017696
416	O	0.693525	0.050879	0.687675
417	C	0.675026	0.053038	0.732102
418	H	0.650313	0.071333	0.729584
419	H	0.708016	0.077172	0.754836
420	H	0.650908	0.01331	0.746313
421	C	0.951435	0.224051	0.685753
422	N	0.978496	0.278159	0.018424
423	C	0.532234	0.308622	0.018406
424	C	0.563306	0.283722	0.68543
425	N	0.536372	0.22971	0.686244
426	C	0.982557	0.198956	0.686958
427	H	0.54908	0.348984	0.017807
428	O	0.961264	0.145051	0.687412
429	C	0.959154	0.124244	0.731765
430	H	0.940842	0.081244	0.729137
431	H	0.935056	0.133039	0.7546
432	H	0.9989	0.139798	0.745923
433	C	0.701999	0.892863	0.018524
434	N	0.647958	0.86555	0.018566
435	C	0.619283	0.811547	0.018551
436	N	0.646598	0.784822	0.018548
437	C	0.700601	0.81015	0.0185
438	N	0.727327	0.864188	0.018505
439	C	0.811424	0.61677	0.018824
440	N	0.865439	0.643162	0.018772
441	C	0.895379	0.697066	0.018776
442	N	0.868989	0.724693	0.018727
443	C	0.815083	0.700727	0.018771
444	N	0.787455	0.646708	0.018783
445	C	0.788102	0.729799	0.01905
446	N	0.733991	0.702748	0.351808
447	C	0.703526	0.726023	0.351771
448	C	0.728427	0.781995	0.0187
449	N	0.782442	0.809078	0.019414
450	C	0.813199	0.786017	0.02013
451	H	0.663163	0.702505	0.351253
452	O	0.867105	0.818635	0.020405
453	C	0.888101	0.837622	0.064658
454	H	0.931089	0.862283	0.061885
455	H	0.879393	0.804877	0.087639
456	H	0.872614	0.861913	0.078722
457	C	0.782354	0.560715	0.019144
458	N	0.809403	0.533656	0.351734
459	C	0.786124	0.979913	0.351677
460	C	0.730154	0.948844	0.018751
461	N	0.703077	0.975775	0.019666
462	C	0.726143	0.529594	0.020416
463	H	0.809638	0.963066	0.35102
464	O	0.693526	0.55088	0.02099
465	C	0.675011	0.553036	0.065411
466	H	0.650297	0.571328	0.062884
467	H	0.707992	0.577165	0.088152
468	H	0.650887	0.513303	0.079618
469	C	0.951434	0.724049	0.019085
470	N	0.978496	0.778159	0.351758
471	C	0.532233	0.808621	0.351741
472	C	0.563304	0.783722	0.018766
473	N	0.536372	0.729711	0.01958
474	C	0.982557	0.698956	0.020293
475	H	0.54908	0.848985	0.351142
476	O	0.961265	0.645052	0.020746
477	C	0.959154	0.624243	0.065101
478	H	0.940841	0.581242	0.062472
479	H	0.935056	0.633037	0.087932
480	H	0.998895	0.639795	0.079259
481	C	0.701999	0.892863	0.351859
482	N	0.647958	0.86555	0.351899
483	C	0.619283	0.811547	0.351885
484	N	0.646598	0.784822	0.351882
485	C	0.700601	0.81015	0.351835
486	N	0.727327	0.864188	0.351838
487	C	0.811424	0.61677	0.352158
488	N	0.865439	0.643162	0.352104
489	C	0.895379	0.697066	0.352111
490	N	0.868989	0.724693	0.35206
491	C	0.815083	0.700727	0.352104
492	N	0.787455	0.646708	0.352118
493	C	0.788102	0.729799	0.352384
494	N	0.733991	0.702748	0.68514
495	C	0.703526	0.726023	0.685103
496	C	0.728427	0.781995	0.352034
497	N	0.782442	0.809078	0.352747
498	C	0.813199	0.786017	0.353464
499	H	0.663163	0.702505	0.684588
500	O	0.867105	0.818635	0.353737
501	C	0.888101	0.837622	0.397992
502	H	0.931089	0.862283	0.395219
503	H	0.879393	0.804877	0.420971
504	H	0.872614	0.861913	0.412055
505	C	0.782354	0.560715	0.352478
506	N	0.809403	0.533656	0.685066
507	C	0.786124	0.979913	0.685009
508	C	0.730154	0.948844	0.352084
509	N	0.703077	0.975775	0.353
510	C	0.726143	0.529594	0.35375
511	H	0.809638	0.963066	0.684356
512	O	0.693526	0.55088	0.354322
513	C	0.675011	0.553036	0.398743
514	H	0.650297	0.571328	0.396218
515	H	0.707992	0.577165	0.421486
516	H	0.650887	0.513303	0.41295
517	C	0.951434	0.724049	0.352417
518	N	0.978496	0.778159	0.68509
519	C	0.532233	0.808621	0.685073
520	C	0.563304	0.783722	0.352097
521	N	0.536372	0.729711	0.352912
522	C	0.982557	0.698956	0.353626
523	H	0.54908	0.848985	0.684474
524	O	0.961265	0.645052	0.35408
525	C	0.959154	0.624243	0.398433
526	H	0.940841	0.581242	0.395804
527	H	0.935056	0.633037	0.421264
528	H	0.998895	0.639795	0.412594
529	C	0.701999	0.892863	0.685191
530	N	0.647958	0.86555	0.685231
531	C	0.619283	0.811547	0.685218
532	N	0.646598	0.784822	0.685214
533	C	0.700601	0.81015	0.685167
534	N	0.727327	0.864188	0.685171
535	C	0.811424	0.61677	0.68549
536	N	0.865439	0.643162	0.685437
537	C	0.895379	0.697066	0.685443
538	N	0.868989	0.724693	0.685393
539	C	0.815083	0.700727	0.685437
540	N	0.787455	0.646708	0.68545
541	C	0.788102	0.729799	0.685716
542	N	0.733991	0.702748	0.018474
543	C	0.703526	0.726023	0.018438
544	C	0.728427	0.781995	0.685366
545	N	0.782442	0.809078	0.686079
546	C	0.813199	0.786017	0.686796
547	H	0.663163	0.702505	0.017921
548	O	0.867105	0.818635	0.687072
549	C	0.888101	0.837622	0.731324
550	H	0.931089	0.862283	0.728551
551	H	0.879393	0.804877	0.754307
552	H	0.872614	0.861913	0.745387
553	C	0.782354	0.560715	0.68581
554	N	0.809403	0.533656	0.018401
555	C	0.786124	0.979913	0.018343
556	C	0.730154	0.948844	0.685416
557	N	0.703077	0.975775	0.686332
558	C	0.726143	0.529594	0.687083
559	H	0.809638	0.963066	0.017689
560	O	0.693526	0.55088	0.687655
561	C	0.675011	0.553036	0.732078
562	H	0.650297	0.571328	0.729551
563	H	0.707992	0.577165	0.754819
564	H	0.650887	0.513303	0.746283
565	C	0.951434	0.724049	0.685753
566	N	0.978496	0.778159	0.018424
567	C	0.532233	0.808621	0.018407
568	C	0.563304	0.783722	0.685433
569	N	0.536372	0.729711	0.686248
570	C	0.982557	0.698956	0.686958
571	H	0.54908	0.848985	0.017808
572	O	0.961265	0.645052	0.687412
573	C	0.959154	0.624243	0.731765
574	H	0.940841	0.581242	0.729137
575	H	0.935056	0.633037	0.7546
576	H	0.998895	0.639795	0.745926
