data_C144H72N54O54_2018-02-15_10:32:30
#******************************************
#
# CIF file created by Zeo++
# Zeo++ is an open source package to
# analyze microporous materials
#
#*******************************************

_cell_length_a		29.2052   
_cell_length_b		29.2059   
_cell_length_c		30.096   
_cell_angle_alpha		90   
_cell_angle_beta		90   
_cell_angle_gamma		120   

_symmetry_space_group_name_H-M		'P1'
_symmetry_Int_Tables_number		1
_symmetry_cell_setting		Monoclinic

loop_
_symmetry_equiv_pos_as_xyz
'+x,+y,+z'

loop_
_atom_site_label
_atom_site_type_symbol
_atom_site_fract_x
_atom_site_fract_y
_atom_site_fract_z
1	C	0.277896	0.629564	0.962818
2	N	0.313752	0.612887	0.963423
3	C	0.366631	0.647379	0.296622
4	N	0.383309	0.699911	0.963672
5	C	0.348827	0.718307	0.96306
6	N	0.296288	0.682444	0.963213
7	C	0.403692	0.629963	0.967333
8	C	0.366213	0.772801	0.300171
9	C	0.223379	0.592463	0.966413
10	O	0.328681	0.787145	0.966048
11	O	0.209052	0.540587	0.965898
12	O	0.455569	0.667519	0.967377
13	C	0.718364	0.362176	0.035275
14	N	0.687541	0.384831	0.035538
15	C	0.633935	0.355421	0.368969
16	N	0.611282	0.301945	0.035444
17	C	0.640692	0.277754	0.03519
18	N	0.694173	0.308571	0.035117
19	C	0.602021	0.379123	0.035307
20	C	0.616943	0.222141	0.367896
21	C	0.773982	0.394077	0.034632
22	O	0.649538	0.201656	0.036785
23	O	0.794406	0.447154	0.036675
24	O	0.54892	0.346416	0.036767
25	C	0.59132	0.454579	0.025446
26	C	0.558108	0.45446	0.059877
27	C	0.525227	0.476277	0.051552
28	C	0.525089	0.49818	0.00973
29	C	0.559068	0.498805	0.309418
30	C	0.592214	0.477712	0.317371
31	H	0.560072	0.51477	0.278895
32	H	0.61596	0.477898	0.292274
33	C	0.491288	0.519083	0.001419
34	C	0.495464	0.562518	0.025962
35	C	0.461137	0.582112	0.015674
36	C	0.423157	0.559782	0.3147
37	C	0.418388	0.515533	0.29169
38	C	0.452489	0.495903	0.301119
39	H	0.463711	0.612875	0.033902
40	H	0.390723	0.498061	0.267131
41	H	0.448341	0.464088	0.28343
42	H	0.500735	0.475494	0.076253
43	N	0.53453	0.586457	0.05943
44	N	0.559383	0.433451	0.101933
45	O	0.514156	0.584077	0.096756
46	O	0.574365	0.468176	0.131703
47	O	0.566597	0.634063	0.050584
48	O	0.514721	0.395729	0.112492
49	N	0.389233	0.578028	0.30533
50	H	0.352242	0.551333	0.300785
51	N	0.622271	0.432229	0.030867
52	H	0.659792	0.45452	0.024231
53	C	0.541708	0.13615	0.024076
54	C	0.540803	0.102936	0.058843
55	C	0.519014	0.048231	0.050588
56	C	0.498109	0.026288	0.008509
57	C	0.498549	0.059777	0.307822
58	C	0.519659	0.11404	0.315684
59	H	0.483294	0.044888	0.277106
60	H	0.52014	0.137684	0.290371
61	C	0.477052	0.971527	0.000371
62	C	0.432957	0.932477	0.024443
63	C	0.413351	0.878482	0.014459
64	C	0.436307	0.862537	0.314235
65	C	0.481113	0.901816	0.291652
66	C	0.500808	0.955622	0.300808
67	H	0.38215	0.850454	0.03241
68	H	0.499071	0.891418	0.267674
69	H	0.533102	0.983127	0.283487
70	H	0.519038	0.024434	0.075562
71	N	0.408408	0.947888	0.057138
72	N	0.560748	0.125115	0.101149
73	O	0.409816	0.929958	0.09476
74	O	0.52525	0.105411	0.130299
75	O	0.361062	0.932544	0.047401
76	O	0.598107	0.118034	0.112666
77	N	0.418091	0.810289	0.305193
78	H	0.444807	0.799907	0.301258
79	N	0.56387	0.189423	0.029665
80	H	0.541868	0.204688	0.022049
81	C	0.860046	0.404897	0.023838
82	C	0.893287	0.43746	0.058488
83	C	0.947988	0.470326	0.050169
84	C	0.969913	0.471054	0.008149
85	C	0.936402	0.437733	0.307595
86	C	0.882148	0.404617	0.315528
87	H	0.951269	0.437143	0.276924
88	H	0.858488	0.381307	0.290285
89	C	0.024663	0.504727	0.999928
90	C	0.063761	0.499959	0.024186
91	C	0.117742	0.534293	0.014104
92	C	0.133626	0.572853	0.313593
93	C	0.094303	0.578154	0.290852
94	C	0.040511	0.54407	0.300086
95	H	0.145801	0.531312	0.032176
96	H	0.104658	0.606253	0.266649
97	H	0.012972	0.548664	0.282624
98	H	0.971803	0.494329	0.075053
99	N	0.048422	0.460324	0.05717
100	N	0.871158	0.435522	0.100759
101	O	0.066377	0.480033	0.094688
102	O	0.890876	0.419902	0.130039
103	O	0.063799	0.428264	0.047766
104	O	0.878285	0.480045	0.112045
105	N	0.185863	0.606854	0.304493
106	H	0.196228	0.643923	0.300376
107	N	0.806767	0.373853	0.029381
108	H	0.791435	0.336479	0.022115
109	C	0.277896	0.629564	0.296151
110	N	0.313752	0.612887	0.296756
111	C	0.366631	0.647379	0.629957
112	N	0.383309	0.699911	0.297006
113	C	0.348827	0.718307	0.296393
114	N	0.296288	0.682444	0.296546
115	C	0.403692	0.629963	0.300667
116	C	0.366213	0.772801	0.633505
117	C	0.223379	0.592463	0.299746
118	O	0.328681	0.787145	0.299379
119	O	0.209052	0.540587	0.29923
120	O	0.455569	0.667519	0.300708
121	C	0.718364	0.362176	0.36861
122	N	0.687541	0.384831	0.368873
123	C	0.633935	0.355421	0.702302
124	N	0.611282	0.301945	0.368779
125	C	0.640692	0.277754	0.368524
126	N	0.694173	0.308571	0.368451
127	C	0.602021	0.379123	0.36864
128	C	0.616943	0.222141	0.701232
129	C	0.773982	0.394077	0.367965
130	O	0.649538	0.201656	0.370119
131	O	0.794406	0.447154	0.370009
132	O	0.54892	0.346416	0.370102
133	C	0.59132	0.454579	0.358778
134	C	0.558108	0.45446	0.393211
135	C	0.525227	0.476277	0.384885
136	C	0.525089	0.49818	0.343065
137	C	0.559068	0.498805	0.642752
138	C	0.592214	0.477712	0.650704
139	H	0.560072	0.51477	0.612227
140	H	0.61596	0.477898	0.625607
141	C	0.491288	0.519083	0.334752
142	C	0.495464	0.562518	0.359297
143	C	0.461137	0.582112	0.349009
144	C	0.423157	0.559782	0.648032
145	C	0.418388	0.515533	0.625023
146	C	0.452489	0.495903	0.634452
147	H	0.463711	0.612875	0.367234
148	H	0.390723	0.498061	0.600465
149	H	0.448341	0.464088	0.616766
150	H	0.500735	0.475494	0.409586
151	N	0.53453	0.586457	0.392763
152	N	0.559383	0.433451	0.435267
153	O	0.514156	0.584077	0.43009
154	O	0.574365	0.468176	0.465038
155	O	0.566597	0.634063	0.383918
156	O	0.514721	0.395729	0.445826
157	N	0.389233	0.578028	0.638662
158	H	0.352242	0.551333	0.63412
159	N	0.622271	0.432229	0.364201
160	H	0.659792	0.45452	0.357565
161	C	0.541708	0.13615	0.357409
162	C	0.540803	0.102936	0.392178
163	C	0.519014	0.048231	0.383921
164	C	0.498109	0.026288	0.341842
165	C	0.498549	0.059777	0.641154
166	C	0.519659	0.11404	0.649019
167	H	0.483294	0.044888	0.610439
168	H	0.52014	0.137684	0.623707
169	C	0.477052	0.971527	0.333705
170	C	0.432957	0.932477	0.357778
171	C	0.413351	0.878482	0.347793
172	C	0.436307	0.862537	0.647567
173	C	0.481113	0.901816	0.624986
174	C	0.500808	0.955622	0.634143
175	H	0.38215	0.850454	0.365743
176	H	0.499071	0.891418	0.601009
177	H	0.533102	0.983127	0.616822
178	H	0.519038	0.024434	0.408894
179	N	0.408408	0.947888	0.39047
180	N	0.560748	0.125115	0.434483
181	O	0.409816	0.929958	0.428093
182	O	0.52525	0.105411	0.463633
183	O	0.361062	0.932544	0.380735
184	O	0.598107	0.118034	0.445999
185	N	0.418091	0.810289	0.638526
186	H	0.444807	0.799907	0.634592
187	N	0.56387	0.189423	0.362998
188	H	0.541868	0.204688	0.355382
189	C	0.860046	0.404897	0.35717
190	C	0.893287	0.43746	0.391822
191	C	0.947988	0.470326	0.383502
192	C	0.969913	0.471054	0.341484
193	C	0.936402	0.437733	0.640928
194	C	0.882148	0.404617	0.648863
195	H	0.951269	0.437143	0.610257
196	H	0.858488	0.381307	0.623617
197	C	0.024663	0.504727	0.33326
198	C	0.063761	0.499959	0.357519
199	C	0.117742	0.534293	0.347438
200	C	0.133626	0.572853	0.646926
201	C	0.094303	0.578154	0.624185
202	C	0.040511	0.54407	0.633419
203	H	0.145801	0.531312	0.36551
204	H	0.104658	0.606253	0.599983
205	H	0.012972	0.548664	0.615958
206	H	0.971803	0.494329	0.408386
207	N	0.048422	0.460324	0.390503
208	N	0.871158	0.435522	0.434094
209	O	0.066377	0.480033	0.42802
210	O	0.890876	0.419902	0.463373
211	O	0.063799	0.428264	0.3811
212	O	0.878285	0.480045	0.445378
213	N	0.185863	0.606854	0.637825
214	H	0.196228	0.643923	0.633711
215	N	0.806767	0.373853	0.362716
216	H	0.791435	0.336479	0.355449
217	C	0.277896	0.629564	0.629485
218	N	0.313752	0.612887	0.63009
219	C	0.366631	0.647379	0.96329
220	N	0.383309	0.699911	0.630339
221	C	0.348827	0.718307	0.629728
222	N	0.296288	0.682444	0.62988
223	C	0.403692	0.629963	0.634001
224	C	0.366213	0.772801	0.966838
225	C	0.223379	0.592463	0.63308
226	O	0.328681	0.787145	0.632711
227	O	0.209052	0.540587	0.632565
228	O	0.455569	0.667519	0.63404
229	C	0.718364	0.362176	0.701943
230	N	0.687541	0.384831	0.702206
231	C	0.633935	0.355421	0.035635
232	N	0.611282	0.301945	0.702112
233	C	0.640692	0.277754	0.701857
234	N	0.694173	0.308571	0.701784
235	C	0.602021	0.379123	0.701976
236	C	0.616943	0.222141	0.034563
237	C	0.773982	0.394077	0.701298
238	O	0.649538	0.201656	0.703452
239	O	0.794406	0.447154	0.703342
240	O	0.54892	0.346416	0.703435
241	C	0.59132	0.454579	0.692114
242	C	0.558108	0.45446	0.726544
243	C	0.525227	0.476277	0.718221
244	C	0.525089	0.49818	0.676398
245	C	0.559068	0.498805	0.976085
246	C	0.592214	0.477712	0.98404
247	H	0.560072	0.51477	0.945563
248	H	0.61596	0.477898	0.95894
249	C	0.491288	0.519083	0.668088
250	C	0.495464	0.562518	0.692629
251	C	0.461137	0.582112	0.682342
252	C	0.423157	0.559782	0.981369
253	C	0.418388	0.515533	0.958359
254	C	0.452489	0.495903	0.967785
255	H	0.463711	0.612875	0.700571
256	H	0.390723	0.498061	0.933797
257	H	0.448341	0.464088	0.950099
258	H	0.500735	0.475494	0.742919
259	N	0.53453	0.586457	0.726099
260	N	0.559383	0.433451	0.7686
261	O	0.514156	0.584077	0.763423
262	O	0.574365	0.468176	0.798371
263	O	0.566597	0.634063	0.717251
264	O	0.514721	0.395729	0.779159
265	N	0.389233	0.578028	0.971999
266	H	0.352242	0.551333	0.967453
267	N	0.622271	0.432229	0.697534
268	H	0.659792	0.45452	0.690898
269	C	0.541708	0.13615	0.690742
270	C	0.540803	0.102936	0.725511
271	C	0.519014	0.048231	0.717257
272	C	0.498109	0.026288	0.675175
273	C	0.498549	0.059777	0.974491
274	C	0.519659	0.11404	0.982352
275	H	0.483294	0.044888	0.943772
276	H	0.52014	0.137684	0.95704
277	C	0.477052	0.971527	0.667038
278	C	0.432957	0.932477	0.691111
279	C	0.413351	0.878482	0.681126
280	C	0.436307	0.862537	0.980903
281	C	0.481113	0.901816	0.958319
282	C	0.500808	0.955622	0.967476
283	H	0.38215	0.850454	0.699079
284	H	0.499071	0.891418	0.934342
285	H	0.533102	0.983127	0.950155
286	H	0.519038	0.024434	0.742231
287	N	0.408408	0.947888	0.723806
288	N	0.560748	0.125115	0.767815
289	O	0.409816	0.929958	0.761426
290	O	0.52525	0.105411	0.796966
291	O	0.361062	0.932544	0.714068
292	O	0.598107	0.118034	0.779335
293	N	0.418091	0.810289	0.971862
294	H	0.444807	0.799907	0.967925
295	N	0.56387	0.189423	0.696331
296	H	0.541868	0.204688	0.688715
297	C	0.860046	0.404897	0.690506
298	C	0.893287	0.43746	0.725155
299	C	0.947988	0.470326	0.716835
300	C	0.969913	0.471054	0.674817
301	C	0.936402	0.437733	0.974261
302	C	0.882148	0.404617	0.982196
303	H	0.951269	0.437143	0.943593
304	H	0.858488	0.381307	0.956953
305	C	0.024663	0.504727	0.666596
306	C	0.063761	0.499959	0.690855
307	C	0.117742	0.534293	0.680771
308	C	0.133626	0.572853	0.980262
309	C	0.094303	0.578154	0.957518
310	C	0.040511	0.54407	0.966752
311	H	0.145801	0.531312	0.698843
312	H	0.104658	0.606253	0.933316
313	H	0.012972	0.548664	0.949291
314	H	0.971803	0.494329	0.741719
315	N	0.048422	0.460324	0.723836
316	N	0.871158	0.435522	0.767427
317	O	0.066377	0.480033	0.761356
318	O	0.890876	0.419902	0.796706
319	O	0.063799	0.428264	0.714433
320	O	0.878285	0.480045	0.778714
321	N	0.185863	0.606854	0.971161
322	H	0.196228	0.643923	0.967044
323	N	0.806767	0.373853	0.696049
324	H	0.791435	0.336479	0.688782
