data_C324H252_2018-02-15_10:38:56
#******************************************
#
# CIF file created by Zeo++
# Zeo++ is an open source package to
# analyze microporous materials
#
#*******************************************

_cell_length_a		34.3755   
_cell_length_b		34.386   
_cell_length_c		29.6206   
_cell_angle_alpha		90   
_cell_angle_beta		90   
_cell_angle_gamma		119.993   

_symmetry_space_group_name_H-M		'P1'
_symmetry_Int_Tables_number		1
_symmetry_cell_setting		Monoclinic

loop_
_symmetry_equiv_pos_as_xyz
'+x,+y,+z'

loop_
_atom_site_label
_atom_site_type_symbol
_atom_site_fract_x
_atom_site_fract_y
_atom_site_fract_z
1	C	0.245986	0.071813	0.06736
2	H	0.268602	0.066036	0.088538
3	H	0.225088	0.041081	0.048346
4	C	0.899519	0.066548	0.031696
5	C	0.922355	0.042115	0.031346
6	H	0.874072	0.057825	0.054499
7	H	0.913044	0.016664	0.054222
8	C	0.127429	0.088333	0.031398
9	H	0.224542	0.078275	0.089608
10	C	0.463486	0.194501	0.014522
11	C	0.486889	0.241552	0.009197
12	C	0.391949	0.19503	0.007063
13	C	0.416089	0.171622	0.012186
14	H	0.399083	0.137344	0.014643
15	H	0.521335	0.258343	0.010199
16	C	0.816421	0.272155	0.014562
17	C	0.769354	0.24851	0.00923
18	C	0.815904	0.200123	0.007014
19	C	0.839315	0.247656	0.012183
20	H	0.873602	0.264925	0.014659
21	H	0.752552	0.26615	0.01027
22	C	0.738742	0.54731	0.014539
23	C	0.762425	0.52393	0.009201
24	C	0.810779	0.618842	0.007034
25	C	0.763227	0.594693	0.012171
26	H	0.745927	0.61168	0.014619
27	H	0.744799	0.489496	0.010212
28	C	0.318076	0.134676	0.036083
29	C	0.270414	0.110181	0.035705
30	C	0.174703	0.111217	0.031743
31	H	0.191394	0.136654	0.054553
32	H	0.111257	0.097608	0.054281
33	H	0.334688	0.126033	0.059054
34	C	0.876236	0.186548	0.036026
35	C	0.900692	0.163341	0.035653
36	H	0.884912	0.211804	0.058994
37	C	0.939059	0.177233	0.067314
38	H	0.944873	0.205632	0.088489
39	H	0.969795	0.187028	0.048306
40	C	0.824263	0.692697	0.036045
41	C	0.847424	0.740348	0.035671
42	C	0.944196	0.836015	0.031755
43	C	0.968589	0.883273	0.031413
44	H	0.952951	0.819317	0.054553
45	H	0.994066	0.899428	0.054268
46	H	0.798986	0.676093	0.058992
47	C	0.833462	0.764773	0.067313
48	H	0.805056	0.742168	0.088475
49	H	0.823635	0.785675	0.04829
50	C	0.621793	0.137645	0.029846
51	C	0.666992	0.148206	0.027348
52	H	0.678761	0.134894	0.050956
53	C	0.563458	0.157227	0.013706
54	C	0.4894	0.172815	0.019819
55	C	0.52252	0.187836	0.05404
56	C	0.560024	0.181368	0.051224
57	H	0.521794	0.20816	0.078933
58	H	0.601908	0.116152	0.054649
59	C	0.596581	0.203735	0.085322
60	H	0.627969	0.227439	0.068701
61	C	0.873329	0.487296	0.029946
62	C	0.862733	0.521895	0.02744
63	H	0.876119	0.547065	0.05095
64	C	0.853722	0.409381	0.013846
65	C	0.838072	0.31974	0.019936
66	C	0.823085	0.337833	0.054171
67	C	0.829603	0.381807	0.051373
68	H	0.802828	0.316784	0.079101
69	H	0.894878	0.488968	0.054728
70	C	0.807343	0.396054	0.085537
71	H	0.783641	0.403787	0.068981
72	C	0.523539	0.389107	0.029833
73	C	0.488984	0.343884	0.027424
74	H	0.463849	0.332108	0.050976
75	C	0.601474	0.447355	0.013736
76	C	0.691123	0.521361	0.019813
77	C	0.673083	0.48823	0.053999
78	C	0.629083	0.450797	0.051236
79	H	0.694104	0.489049	0.078989
80	H	0.521955	0.408942	0.054708
81	C	0.614834	0.414297	0.085398
82	H	0.607067	0.382865	0.068836
83	H	0.932553	0.149323	0.089564
84	H	0.861357	0.786199	0.089577
85	C	0.054254	0.028389	0.001553
86	C	0.029881	0.05161	0.001573
87	C	0.982287	0.028832	0.001523
88	H	0.047247	0.085995	0.001539
89	C	0.102513	0.05227	0.334702
90	C	0.126978	0.040527	0.304564
91	C	0.174638	0.063368	0.304082
92	H	0.10961	0.015059	0.281981
93	C	0.19827	0.049381	0.271454
94	H	0.219237	0.039069	0.289637
95	H	0.21955	0.077427	0.249289
96	H	0.175125	0.021322	0.250222
97	C	0.958414	0.053216	0.334644
98	C	0.054254	0.028389	0.334887
99	C	0.029881	0.05161	0.334905
100	C	0.982287	0.028832	0.334855
101	H	0.047247	0.085995	0.334874
102	C	0.102513	0.05227	0.668035
103	C	0.126978	0.040527	0.637897
104	C	0.174638	0.063368	0.637415
105	H	0.10961	0.015059	0.615315
106	C	0.245986	0.071813	0.400694
107	H	0.268602	0.066036	0.421872
108	H	0.225088	0.041081	0.38168
109	H	0.224542	0.078275	0.422942
110	C	0.19827	0.049381	0.604789
111	H	0.219237	0.039069	0.622972
112	H	0.21955	0.077427	0.582622
113	H	0.175125	0.021322	0.583553
114	C	0.899519	0.066548	0.36503
115	C	0.922355	0.042115	0.364679
116	C	0.958414	0.053216	0.667978
117	H	0.874072	0.057825	0.387831
118	H	0.913044	0.016664	0.387555
119	C	0.054254	0.028389	0.668221
120	C	0.029881	0.05161	0.668238
121	C	0.982287	0.028832	0.668187
122	H	0.047247	0.085995	0.668207
123	C	0.102513	0.05227	0.001371
124	C	0.126978	0.040527	0.971229
125	C	0.174638	0.063368	0.97075
126	H	0.10961	0.015059	0.948647
127	C	0.245986	0.071813	0.734026
128	H	0.268602	0.066036	0.755204
129	H	0.225088	0.041081	0.715013
130	H	0.224542	0.078275	0.756274
131	C	0.19827	0.049381	0.938121
132	H	0.219237	0.039069	0.956304
133	H	0.21955	0.077427	0.915957
134	H	0.175125	0.021322	0.916889
135	C	0.899519	0.066548	0.698362
136	C	0.922355	0.042115	0.698014
137	C	0.958414	0.053216	0.00131
138	H	0.874072	0.057825	0.721164
139	H	0.913044	0.016664	0.72089
140	C	0.970194	0.089416	0.3045
141	H	0.842204	0.090315	0.285731
142	C	0.127429	0.088333	0.364733
143	C	0.970194	0.089416	0.637833
144	H	0.842204	0.090315	0.619066
145	C	0.127429	0.088333	0.698065
146	C	0.970194	0.089416	0.971165
147	H	0.842204	0.090315	0.952398
148	C	0.959061	0.981251	0.001566
149	C	0.981855	0.956447	0.001543
150	C	0.029449	0.980804	0.001593
151	H	0.924665	0.96423	0.001529
152	H	0.046482	0.963444	0.00157
153	C	0.464771	0.266317	0.002272
154	C	0.417229	0.242611	0.002505
155	H	0.400928	0.260483	0.998937
156	C	0.744593	0.20165	0.002242
157	C	0.76831	0.177827	0.002451
158	H	0.750433	0.143665	0.998862
159	C	0.809306	0.546051	0.002245
160	C	0.833111	0.593581	0.002481
161	H	0.867286	0.609887	0.998916
162	C	0.343516	0.171167	0.006467
163	C	0.246901	0.122619	0.338001
164	C	0.271892	0.159173	0.308603
165	C	0.319181	0.18287	0.30948
166	H	0.335762	0.208363	0.286763
167	C	0.198917	0.099138	0.335124
168	H	0.255761	0.168616	0.285803
169	C	0.839756	0.175546	0.006398
170	C	0.888209	0.127387	0.337954
171	C	0.85166	0.115871	0.308546
172	C	0.828021	0.139518	0.309403
173	H	0.802534	0.13064	0.286676
174	C	0.911642	0.10284	0.335078
175	C	0.947407	0.114284	0.304028
176	H	0.99567	0.097494	0.281922
177	C	0.961445	0.151904	0.271404
178	H	0.971805	0.183182	0.289591
179	H	0.933402	0.145181	0.249243
180	H	0.989497	0.156779	0.250167
181	C	0.835328	0.667262	0.006434
182	C	0.8834	0.763849	0.337995
183	C	0.894981	0.738864	0.308603
184	C	0.871375	0.691586	0.309457
185	H	0.880308	0.675011	0.286749
186	C	0.907906	0.811822	0.335129
187	C	0.957475	0.908198	0.33469
188	C	0.921271	0.883757	0.304547
189	C	0.89644	0.836113	0.304068
190	H	0.913191	0.90113	0.281944
191	H	0.920561	0.754985	0.285812
192	C	0.858831	0.812504	0.271425
193	H	0.827542	0.791561	0.289596
194	H	0.8656	0.791215	0.249271
195	H	0.853935	0.835656	0.250181
196	C	0.696946	0.181092	0.330161
197	C	0.679343	0.200353	0.299985
198	C	0.63453	0.191443	0.302951
199	C	0.605369	0.160102	0.002519
200	C	0.527869	0.138165	0.315352
201	C	0.491638	0.146316	0.317992
202	H	0.530502	0.122329	0.287219
203	H	0.46974	0.136976	0.291411
204	H	0.700888	0.224532	0.277955
205	C	0.620785	0.218141	0.274161
206	H	0.647915	0.242341	0.252655
207	H	0.609874	0.236886	0.295345
208	H	0.593204	0.195766	0.252089
209	H	0.601268	0.178591	0.103078
210	H	0.589402	0.222323	0.110698
211	C	0.829893	0.518987	0.330189
212	C	0.810662	0.482135	0.300004
213	C	0.819536	0.44622	0.303044
214	C	0.850874	0.448416	0.002637
215	C	0.872709	0.392807	0.315441
216	C	0.864543	0.34843	0.318064
217	H	0.888532	0.411262	0.287298
218	H	0.873854	0.335862	0.291468
219	H	0.786446	0.479469	0.277996
220	C	0.792761	0.405748	0.27432
221	H	0.768542	0.408666	0.252822
222	H	0.774009	0.376136	0.295554
223	H	0.815092	0.40048	0.25224
224	H	0.832562	0.425858	0.103266
225	H	0.788765	0.370303	0.110927
226	C	0.491867	0.313947	0.330168
227	C	0.528702	0.331552	0.299952
228	C	0.564614	0.37633	0.30294
229	C	0.562427	0.405476	0.002519
230	C	0.618064	0.482894	0.315313
231	C	0.662429	0.519135	0.317955
232	H	0.599503	0.480302	0.287263
233	H	0.674926	0.541078	0.291408
234	H	0.531296	0.309992	0.277912
235	C	0.605057	0.390051	0.274147
236	H	0.602127	0.362916	0.252654
237	H	0.634723	0.400957	0.29533
238	H	0.610259	0.417615	0.252062
239	H	0.585044	0.409734	0.103155
240	H	0.640608	0.421453	0.110764
241	C	0.959061	0.981251	0.334898
242	C	0.981855	0.956447	0.334877
243	C	0.029449	0.980804	0.334926
244	H	0.924665	0.96423	0.334863
245	H	0.046482	0.963444	0.334904
246	C	0.463486	0.194501	0.347856
247	C	0.486889	0.241552	0.342532
248	C	0.464771	0.266317	0.335605
249	C	0.417229	0.242611	0.33584
250	C	0.391949	0.19503	0.340398
251	C	0.416089	0.171622	0.34552
252	H	0.400928	0.260483	0.332269
253	H	0.399083	0.137344	0.347977
254	H	0.521335	0.258343	0.343531
255	C	0.816421	0.272155	0.347896
256	C	0.769354	0.24851	0.342562
257	C	0.744593	0.20165	0.335574
258	C	0.76831	0.177827	0.335786
259	C	0.815904	0.200123	0.340348
260	C	0.839315	0.247656	0.345516
261	H	0.750433	0.143665	0.332195
262	H	0.873602	0.264925	0.347994
263	H	0.752552	0.26615	0.343602
264	C	0.738742	0.54731	0.347873
265	C	0.762425	0.52393	0.342535
266	C	0.809306	0.546051	0.335579
267	C	0.833111	0.593581	0.335814
268	C	0.810779	0.618842	0.340368
269	C	0.763227	0.594693	0.345503
270	H	0.867286	0.609887	0.332251
271	H	0.745927	0.61168	0.34795
272	H	0.744799	0.489496	0.343545
273	C	0.343516	0.171167	0.339801
274	C	0.318076	0.134676	0.369415
275	C	0.270414	0.110181	0.369037
276	C	0.246901	0.122619	0.671333
277	C	0.271892	0.159173	0.641935
278	C	0.319181	0.18287	0.642813
279	H	0.335762	0.208363	0.620095
280	C	0.198917	0.099138	0.668457
281	C	0.174703	0.111217	0.365077
282	H	0.191394	0.136654	0.387885
283	H	0.111257	0.097608	0.387615
284	H	0.334688	0.126033	0.392386
285	H	0.255761	0.168616	0.619137
286	C	0.839756	0.175546	0.339733
287	C	0.876236	0.186548	0.369358
288	C	0.900692	0.163341	0.368986
289	C	0.888209	0.127387	0.671286
290	C	0.85166	0.115871	0.641881
291	C	0.828021	0.139518	0.642735
292	H	0.802534	0.13064	0.620008
293	C	0.911642	0.10284	0.66841
294	C	0.947407	0.114284	0.63736
295	H	0.99567	0.097494	0.615254
296	H	0.884912	0.211804	0.392328
297	C	0.939059	0.177233	0.400647
298	H	0.944873	0.205632	0.421821
299	H	0.969795	0.187028	0.38164
300	H	0.932553	0.149323	0.422898
301	C	0.961445	0.151904	0.604738
302	H	0.971805	0.183182	0.622925
303	H	0.933402	0.145181	0.582578
304	H	0.989497	0.156779	0.583499
305	C	0.835328	0.667262	0.339767
306	C	0.824263	0.692697	0.369378
307	C	0.847424	0.740348	0.369003
308	C	0.8834	0.763849	0.67133
309	C	0.894981	0.738864	0.641935
310	C	0.871375	0.691586	0.642789
311	H	0.880308	0.675011	0.620082
312	C	0.907906	0.811822	0.668464
313	C	0.944196	0.836015	0.365087
314	C	0.968589	0.883273	0.364746
315	C	0.957475	0.908198	0.668025
316	C	0.921271	0.883757	0.63788
317	C	0.89644	0.836113	0.637401
318	H	0.952951	0.819317	0.387885
319	H	0.994066	0.899428	0.387602
320	H	0.913191	0.90113	0.615278
321	H	0.798986	0.676093	0.392325
322	C	0.833462	0.764773	0.400647
323	H	0.805056	0.742168	0.421808
324	H	0.823635	0.785675	0.381623
325	H	0.861357	0.786199	0.422912
326	H	0.920561	0.754985	0.619143
327	C	0.858831	0.812504	0.604758
328	H	0.827542	0.791561	0.622928
329	H	0.8656	0.791215	0.582605
330	H	0.853935	0.835656	0.583513
331	C	0.696946	0.181092	0.663494
332	C	0.679343	0.200353	0.633319
333	C	0.63453	0.191443	0.636284
334	C	0.605369	0.160102	0.33585
335	C	0.621793	0.137645	0.36318
336	C	0.666992	0.148206	0.360681
337	H	0.678761	0.134894	0.38429
338	C	0.563458	0.157227	0.347039
339	C	0.527869	0.138165	0.648687
340	C	0.491638	0.146316	0.651324
341	C	0.4894	0.172815	0.353153
342	C	0.52252	0.187836	0.387372
343	C	0.560024	0.181368	0.384557
344	H	0.530502	0.122329	0.620551
345	H	0.46974	0.136976	0.624744
346	H	0.521794	0.20816	0.412267
347	H	0.700888	0.224532	0.611287
348	C	0.620785	0.218141	0.607493
349	H	0.647915	0.242341	0.585987
350	H	0.609874	0.236886	0.628677
351	H	0.593204	0.195766	0.585424
352	H	0.601908	0.116152	0.387983
353	C	0.596581	0.203735	0.418655
354	H	0.627969	0.227439	0.402034
355	H	0.601268	0.178591	0.436412
356	H	0.589402	0.222323	0.444032
357	C	0.829893	0.518987	0.663521
358	C	0.810662	0.482135	0.633336
359	C	0.819536	0.44622	0.636378
360	C	0.850874	0.448416	0.335971
361	C	0.873329	0.487296	0.363281
362	C	0.862733	0.521895	0.360773
363	H	0.876119	0.547065	0.384283
364	C	0.853722	0.409381	0.347181
365	C	0.872709	0.392807	0.648775
366	C	0.864543	0.34843	0.651398
367	C	0.838072	0.31974	0.353271
368	C	0.823085	0.337833	0.387504
369	C	0.829603	0.381807	0.384705
370	H	0.888532	0.411262	0.620632
371	H	0.873854	0.335862	0.624802
372	H	0.802828	0.316784	0.412436
373	H	0.786446	0.479469	0.611331
374	C	0.792761	0.405748	0.607655
375	H	0.768542	0.408666	0.586156
376	H	0.774009	0.376136	0.628887
377	H	0.815092	0.40048	0.585572
378	H	0.894878	0.488968	0.388061
379	C	0.807343	0.396054	0.418871
380	H	0.783641	0.403787	0.402315
381	H	0.832562	0.425858	0.436598
382	H	0.788765	0.370303	0.444262
383	C	0.491867	0.313947	0.663501
384	C	0.528702	0.331552	0.633286
385	C	0.564614	0.37633	0.636273
386	C	0.562427	0.405476	0.335853
387	C	0.523539	0.389107	0.363166
388	C	0.488984	0.343884	0.360756
389	H	0.463849	0.332108	0.38431
390	C	0.601474	0.447355	0.347069
391	C	0.618064	0.482894	0.648647
392	C	0.662429	0.519135	0.651287
393	C	0.691123	0.521361	0.353146
394	C	0.673083	0.48823	0.387332
395	C	0.629083	0.450797	0.38457
396	H	0.599503	0.480302	0.620595
397	H	0.674926	0.541078	0.624741
398	H	0.694104	0.489049	0.412321
399	H	0.531296	0.309992	0.611247
400	C	0.605057	0.390051	0.607479
401	H	0.602127	0.362916	0.585987
402	H	0.634723	0.400957	0.628664
403	H	0.610259	0.417615	0.585397
404	H	0.521955	0.408942	0.388041
405	C	0.614834	0.414297	0.418732
406	H	0.607067	0.382865	0.402169
407	H	0.585044	0.409734	0.436487
408	H	0.640608	0.421453	0.444096
409	C	0.959061	0.981251	0.668231
410	C	0.981855	0.956447	0.668211
411	C	0.029449	0.980804	0.668258
412	H	0.924665	0.96423	0.668197
413	H	0.046482	0.963444	0.668238
414	C	0.463486	0.194501	0.681188
415	C	0.486889	0.241552	0.675864
416	C	0.464771	0.266317	0.66894
417	C	0.417229	0.242611	0.669173
418	C	0.391949	0.19503	0.67373
419	C	0.416089	0.171622	0.678852
420	H	0.400928	0.260483	0.665601
421	H	0.399083	0.137344	0.68131
422	H	0.521335	0.258343	0.676867
423	C	0.816421	0.272155	0.681229
424	C	0.769354	0.24851	0.675898
425	C	0.744593	0.20165	0.668906
426	C	0.76831	0.177827	0.669119
427	C	0.815904	0.200123	0.67368
428	C	0.839315	0.247656	0.678849
429	H	0.750433	0.143665	0.665527
430	H	0.873602	0.264925	0.681327
431	H	0.752552	0.26615	0.676938
432	C	0.738742	0.54731	0.681205
433	C	0.762425	0.52393	0.675867
434	C	0.809306	0.546051	0.668913
435	C	0.833111	0.593581	0.669149
436	C	0.810779	0.618842	0.6737
437	C	0.763227	0.594693	0.678838
438	H	0.867286	0.609887	0.665584
439	H	0.745927	0.61168	0.681286
440	H	0.744799	0.489496	0.676877
441	C	0.343516	0.171167	0.673133
442	C	0.318076	0.134676	0.702751
443	C	0.270414	0.110181	0.702373
444	C	0.246901	0.122619	0.004669
445	C	0.271892	0.159173	0.975271
446	C	0.319181	0.18287	0.976145
447	H	0.335762	0.208363	0.953431
448	C	0.198917	0.099138	0.001789
449	C	0.174703	0.111217	0.698409
450	H	0.191394	0.136654	0.721221
451	H	0.111257	0.097608	0.720948
452	H	0.334688	0.126033	0.725721
453	H	0.255761	0.168616	0.952469
454	C	0.839756	0.175546	0.673065
455	C	0.876236	0.186548	0.702693
456	C	0.900692	0.163341	0.702319
457	C	0.888209	0.127387	0.004622
458	C	0.85166	0.115871	0.975213
459	C	0.828021	0.139518	0.976071
460	H	0.802534	0.13064	0.953343
461	C	0.911642	0.10284	0.001745
462	C	0.947407	0.114284	0.970696
463	H	0.99567	0.097494	0.94859
464	H	0.884912	0.211804	0.725661
465	C	0.939059	0.177233	0.733982
466	H	0.944873	0.205632	0.755157
467	H	0.969795	0.187028	0.714972
468	H	0.932553	0.149323	0.75623
469	C	0.961445	0.151904	0.93807
470	H	0.971805	0.183182	0.956257
471	H	0.933402	0.145181	0.91591
472	H	0.989497	0.156779	0.916835
473	C	0.835328	0.667262	0.673099
474	C	0.824263	0.692697	0.70271
475	C	0.847424	0.740348	0.702339
476	C	0.8834	0.763849	0.004662
477	C	0.894981	0.738864	0.975271
478	C	0.871375	0.691586	0.976125
479	H	0.880308	0.675011	0.953418
480	C	0.907906	0.811822	0.001796
481	C	0.944196	0.836015	0.698423
482	C	0.968589	0.883273	0.698078
483	C	0.957475	0.908198	0.001357
484	C	0.921271	0.883757	0.971213
485	C	0.89644	0.836113	0.970733
486	H	0.952951	0.819317	0.721221
487	H	0.994066	0.899428	0.720934
488	H	0.913191	0.90113	0.94861
489	H	0.798986	0.676093	0.725661
490	C	0.833462	0.764773	0.733979
491	H	0.805056	0.742168	0.75514
492	H	0.823635	0.785675	0.714955
493	H	0.861357	0.786199	0.756244
494	H	0.920561	0.754985	0.952479
495	C	0.858831	0.812504	0.93809
496	H	0.827542	0.791561	0.956264
497	H	0.8656	0.791215	0.915937
498	H	0.853935	0.835656	0.916848
499	C	0.696946	0.181092	0.99683
500	C	0.679343	0.200353	0.966652
501	C	0.63453	0.191443	0.969619
502	C	0.605369	0.160102	0.669183
503	C	0.621793	0.137645	0.696512
504	C	0.666992	0.148206	0.694014
505	H	0.678761	0.134894	0.717622
506	C	0.563458	0.157227	0.680371
507	C	0.527869	0.138165	0.982019
508	C	0.491638	0.146316	0.984659
509	C	0.4894	0.172815	0.686485
510	C	0.52252	0.187836	0.720708
511	C	0.560024	0.181368	0.717892
512	H	0.530502	0.122329	0.953887
513	H	0.46974	0.136976	0.958076
514	H	0.521794	0.20816	0.745599
515	H	0.700888	0.224532	0.944623
516	C	0.620785	0.218141	0.940828
517	H	0.647915	0.242341	0.91932
518	H	0.609874	0.236886	0.962013
519	H	0.593204	0.195766	0.918756
520	H	0.601908	0.116152	0.721316
521	C	0.596581	0.203735	0.75199
522	H	0.627969	0.227439	0.735367
523	H	0.601268	0.178591	0.769745
524	H	0.589402	0.222323	0.777364
525	C	0.829893	0.518987	0.996857
526	C	0.810662	0.482135	0.966672
527	C	0.819536	0.44622	0.96971
528	C	0.850874	0.448416	0.669304
529	C	0.873329	0.487296	0.696613
530	C	0.862733	0.521895	0.694108
531	H	0.876119	0.547065	0.717615
532	C	0.853722	0.409381	0.680513
533	C	0.872709	0.392807	0.982107
534	C	0.864543	0.34843	0.98473
535	C	0.838072	0.31974	0.686603
536	C	0.823085	0.337833	0.720836
537	C	0.829603	0.381807	0.718041
538	H	0.888532	0.411262	0.953964
539	H	0.873854	0.335862	0.958134
540	H	0.802828	0.316784	0.745768
541	H	0.786446	0.479469	0.944664
542	C	0.792761	0.405748	0.940987
543	H	0.768542	0.408666	0.919488
544	H	0.774009	0.376136	0.962219
545	H	0.815092	0.40048	0.918908
546	H	0.894878	0.488968	0.721397
547	C	0.807343	0.396054	0.752203
548	H	0.783641	0.403787	0.735647
549	H	0.832562	0.425858	0.769934
550	H	0.788765	0.370303	0.777594
551	C	0.491867	0.313947	0.996833
552	C	0.528702	0.331552	0.966618
553	C	0.564614	0.37633	0.969606
554	C	0.562427	0.405476	0.669186
555	C	0.523539	0.389107	0.696498
556	C	0.488984	0.343884	0.694091
557	H	0.463849	0.332108	0.717642
558	C	0.601474	0.447355	0.680401
559	C	0.618064	0.482894	0.981979
560	C	0.662429	0.519135	0.984622
561	C	0.691123	0.521361	0.686478
562	C	0.673083	0.48823	0.720664
563	C	0.629083	0.450797	0.717902
564	H	0.599503	0.480302	0.953931
565	H	0.674926	0.541078	0.958073
566	H	0.694104	0.489049	0.745657
567	H	0.531296	0.309992	0.944579
568	C	0.605057	0.390051	0.940815
569	H	0.602127	0.362916	0.91932
570	H	0.634723	0.400957	0.961996
571	H	0.610259	0.417615	0.918729
572	H	0.521955	0.408942	0.721373
573	C	0.614834	0.414297	0.752064
574	H	0.607067	0.382865	0.735502
575	H	0.585044	0.409734	0.769822
576	H	0.640608	0.421453	0.777432
