data_C288N216_2018-02-15_10:37:57
#******************************************
#
# CIF file created by Zeo++
# Zeo++ is an open source package to
# analyze microporous materials
#
#*******************************************

_cell_length_a		28.8324   
_cell_length_b		28.8324   
_cell_length_c		29.4512   
_cell_angle_alpha		90   
_cell_angle_beta		90   
_cell_angle_gamma		120   

_symmetry_space_group_name_H-M		'P1'
_symmetry_Int_Tables_number		1
_symmetry_cell_setting		Monoclinic

loop_
_symmetry_equiv_pos_as_xyz
'+x,+y,+z'

loop_
_atom_site_label
_atom_site_type_symbol
_atom_site_fract_x
_atom_site_fract_y
_atom_site_fract_z
1	C	0.069942	0.287299	0.009871
2	N	0.041767	0.273209	0.303691
3	C	0.040565	0.272619	0.05104
4	C	0.062619	0.283643	0.091085
5	N	0.08233	0.293494	0.126327
6	C	0.069942	0.287299	0.343204
7	N	0.041767	0.273209	0.637026
8	C	0.040565	0.272619	0.384374
9	C	0.062619	0.283643	0.42442
10	N	0.08233	0.293494	0.459661
11	C	0.069942	0.287299	0.676538
12	N	0.041767	0.273209	0.97036
13	C	0.040565	0.272619	0.717708
14	C	0.062619	0.283643	0.757754
15	N	0.08233	0.293494	0.792995
16	C	0.069942	0.787302	0.009871
17	N	0.041767	0.773208	0.303691
18	C	0.040566	0.77262	0.05104
19	C	0.06262	0.783645	0.091085
20	N	0.082329	0.793493	0.126327
21	C	0.069942	0.787302	0.343204
22	N	0.041767	0.773208	0.637026
23	C	0.040566	0.77262	0.384374
24	C	0.06262	0.783645	0.42442
25	N	0.082329	0.793493	0.459661
26	C	0.069942	0.787302	0.676538
27	N	0.041767	0.773208	0.97036
28	C	0.040566	0.77262	0.717708
29	C	0.06262	0.783645	0.757754
30	N	0.082329	0.793493	0.792995
31	C	0.207956	0.397276	0.007322
32	N	0.153517	0.369777	0.007811
33	C	0.12601	0.315337	0.007288
34	N	0.153513	0.2884	0.007791
35	C	0.207952	0.315333	0.007302
36	N	0.234893	0.369773	0.007825
37	C	0.319995	0.121354	0.011895
38	N	0.374435	0.148856	0.011376
39	C	0.401934	0.203294	0.011885
40	N	0.374434	0.230233	0.011398
41	C	0.319994	0.203298	0.011915
42	N	0.293059	0.148858	0.011408
43	C	0.235989	0.287302	0.00989
44	N	0.250063	0.273195	0.303713
45	C	0.277257	0.246	0.301488
46	C	0.291956	0.231329	0.009327
47	N	0.277882	0.245434	0.048837
48	C	0.250691	0.272632	0.051062
49	C	0.239665	0.283665	0.091105
50	C	0.288281	0.234964	0.261446
51	N	0.298139	0.225103	0.226207
52	N	0.229809	0.293522	0.126346
53	C	0.235994	0.453343	0.009901
54	N	0.250088	0.481514	0.303719
55	C	0.277281	0.035903	0.301483
56	C	0.291951	0.065285	0.009316
57	N	0.277859	0.037116	0.048832
58	C	0.250669	0.482727	0.051067
59	C	0.239643	0.46068	0.091114
60	C	0.288309	0.057952	0.261436
61	N	0.298166	0.077663	0.226194
62	N	0.229791	0.440976	0.126359
63	C	0.487379	0.246014	0.301462
64	C	0.458003	0.231335	0.009299
65	N	0.486179	0.245425	0.04881
66	C	0.465322	0.234989	0.261417
67	N	0.445608	0.225137	0.226177
68	C	0.207956	0.397276	0.340655
69	N	0.153517	0.369777	0.341143
70	C	0.12601	0.315337	0.340621
71	N	0.153513	0.2884	0.341123
72	C	0.207952	0.315333	0.340634
73	N	0.234893	0.369773	0.341157
74	C	0.319995	0.121354	0.345228
75	N	0.374435	0.148856	0.344709
76	C	0.401934	0.203294	0.345218
77	N	0.374434	0.230233	0.344732
78	C	0.319994	0.203298	0.345249
79	N	0.293059	0.148858	0.344743
80	C	0.235989	0.287302	0.343225
81	N	0.250063	0.273195	0.637046
82	C	0.277257	0.246	0.634822
83	C	0.291956	0.231329	0.342661
84	N	0.277882	0.245434	0.382171
85	C	0.250691	0.272632	0.384395
86	C	0.239665	0.283665	0.42444
87	C	0.288281	0.234964	0.59478
88	N	0.298139	0.225103	0.559542
89	N	0.229809	0.293522	0.459678
90	C	0.235994	0.453343	0.343235
91	N	0.250088	0.481514	0.637053
92	C	0.277281	0.035903	0.634815
93	C	0.291951	0.065285	0.342648
94	N	0.277859	0.037116	0.382164
95	C	0.250669	0.482727	0.384401
96	C	0.239643	0.46068	0.424447
97	C	0.288309	0.057952	0.594769
98	N	0.298166	0.077663	0.559528
99	N	0.229791	0.440976	0.459692
100	C	0.487379	0.246014	0.634795
101	C	0.458003	0.231335	0.342631
102	N	0.486179	0.245425	0.382143
103	C	0.465322	0.234989	0.594752
104	N	0.445608	0.225137	0.559511
105	C	0.207956	0.397276	0.673988
106	N	0.153517	0.369777	0.674477
107	C	0.12601	0.315337	0.673955
108	N	0.153513	0.2884	0.674457
109	C	0.207952	0.315333	0.673968
110	N	0.234893	0.369773	0.674491
111	C	0.319995	0.121354	0.678562
112	N	0.374435	0.148856	0.678043
113	C	0.401934	0.203294	0.678552
114	N	0.374434	0.230233	0.678066
115	C	0.319994	0.203298	0.678582
116	N	0.293059	0.148858	0.678077
117	C	0.235989	0.287302	0.676559
118	N	0.250063	0.273195	0.97038
119	C	0.277257	0.246	0.968156
120	C	0.291956	0.231329	0.675995
121	N	0.277882	0.245434	0.715505
122	C	0.250691	0.272632	0.717729
123	C	0.239665	0.283665	0.757774
124	C	0.288281	0.234964	0.928114
125	N	0.298139	0.225103	0.892876
126	N	0.229809	0.293522	0.793012
127	C	0.235994	0.453343	0.676569
128	N	0.250088	0.481514	0.970387
129	C	0.277281	0.035903	0.968149
130	C	0.291951	0.065285	0.675982
131	N	0.277859	0.037116	0.715498
132	C	0.250669	0.482727	0.717735
133	C	0.239643	0.46068	0.757781
134	C	0.288309	0.057952	0.928103
135	N	0.298166	0.077663	0.892862
136	N	0.229791	0.440976	0.793026
137	C	0.487379	0.246014	0.968129
138	C	0.458003	0.231335	0.675965
139	N	0.486179	0.245425	0.715477
140	C	0.465322	0.234989	0.928086
141	N	0.445608	0.225137	0.892845
142	C	0.207956	0.897275	0.007322
143	N	0.153517	0.869778	0.007811
144	C	0.126009	0.815336	0.007288
145	N	0.153512	0.788399	0.007791
146	C	0.207952	0.815332	0.007302
147	N	0.234893	0.869774	0.007825
148	C	0.319996	0.621356	0.011895
149	N	0.374435	0.648857	0.011376
150	C	0.401935	0.703295	0.011885
151	N	0.374433	0.730232	0.011398
152	C	0.319994	0.703299	0.011915
153	N	0.293058	0.648857	0.011408
154	C	0.235989	0.787302	0.00989
155	N	0.250063	0.773196	0.303713
156	C	0.277256	0.745999	0.301488
157	C	0.291957	0.731329	0.009327
158	N	0.277882	0.745435	0.048837
159	C	0.25069	0.772632	0.051062
160	C	0.239665	0.783665	0.091105
161	C	0.288282	0.734966	0.261446
162	N	0.298138	0.725102	0.226207
163	N	0.229808	0.793521	0.126346
164	C	0.235994	0.953343	0.009901
165	N	0.250088	0.981514	0.303719
166	C	0.277281	0.535904	0.301483
167	C	0.29195	0.565283	0.009316
168	N	0.277859	0.537117	0.048832
169	C	0.250669	0.982727	0.051067
170	C	0.239643	0.96068	0.091114
171	C	0.288311	0.557955	0.261436
172	N	0.298165	0.577663	0.226194
173	N	0.229791	0.940976	0.126359
174	C	0.487379	0.746015	0.301462
175	C	0.458002	0.731333	0.009299
176	N	0.486178	0.745427	0.04881
177	C	0.465323	0.73499	0.261417
178	N	0.445609	0.725138	0.226177
179	C	0.207956	0.897275	0.340655
180	N	0.153517	0.869778	0.341143
181	C	0.126009	0.815336	0.340621
182	N	0.153512	0.788399	0.341123
183	C	0.207952	0.815332	0.340634
184	N	0.234893	0.869774	0.341157
185	C	0.319996	0.621356	0.345228
186	N	0.374435	0.648857	0.344709
187	C	0.401935	0.703295	0.345218
188	N	0.374433	0.730232	0.344732
189	C	0.319994	0.703299	0.345249
190	N	0.293058	0.648857	0.344743
191	C	0.235989	0.787302	0.343225
192	N	0.250063	0.773196	0.637046
193	C	0.277256	0.745999	0.634822
194	C	0.291957	0.731329	0.342661
195	N	0.277882	0.745435	0.382171
196	C	0.25069	0.772632	0.384395
197	C	0.239665	0.783665	0.42444
198	C	0.288282	0.734966	0.59478
199	N	0.298138	0.725102	0.559542
200	N	0.229808	0.793521	0.459678
201	C	0.235994	0.953343	0.343235
202	N	0.250088	0.981514	0.637053
203	C	0.277281	0.535904	0.634815
204	C	0.29195	0.565283	0.342648
205	N	0.277859	0.537117	0.382164
206	C	0.250669	0.982727	0.384401
207	C	0.239643	0.96068	0.424447
208	C	0.288311	0.557955	0.594769
209	N	0.298165	0.577663	0.559528
210	N	0.229791	0.940976	0.459692
211	C	0.487379	0.746015	0.634795
212	C	0.458002	0.731333	0.342631
213	N	0.486178	0.745427	0.382143
214	C	0.465323	0.73499	0.594752
215	N	0.445609	0.725138	0.559511
216	C	0.207956	0.897275	0.673988
217	N	0.153517	0.869778	0.674477
218	C	0.126009	0.815336	0.673955
219	N	0.153512	0.788399	0.674457
220	C	0.207952	0.815332	0.673968
221	N	0.234893	0.869774	0.674491
222	C	0.319996	0.621356	0.678562
223	N	0.374435	0.648857	0.678043
224	C	0.401935	0.703295	0.678552
225	N	0.374433	0.730232	0.678066
226	C	0.319994	0.703299	0.678582
227	N	0.293058	0.648857	0.678077
228	C	0.235989	0.787302	0.676559
229	N	0.250063	0.773196	0.97038
230	C	0.277256	0.745999	0.968156
231	C	0.291957	0.731329	0.675995
232	N	0.277882	0.745435	0.715505
233	C	0.25069	0.772632	0.717729
234	C	0.239665	0.783665	0.757774
235	C	0.288282	0.734966	0.928114
236	N	0.298138	0.725102	0.892876
237	N	0.229808	0.793521	0.793012
238	C	0.235994	0.953343	0.676569
239	N	0.250088	0.981514	0.970387
240	C	0.277281	0.535904	0.968149
241	C	0.29195	0.565283	0.675982
242	N	0.277859	0.537117	0.715498
243	C	0.250669	0.982727	0.717735
244	C	0.239643	0.96068	0.757781
245	C	0.288311	0.557955	0.928103
246	N	0.298165	0.577663	0.892862
247	N	0.229791	0.940976	0.793026
248	C	0.487379	0.746015	0.968129
249	C	0.458002	0.731333	0.675965
250	N	0.486178	0.745427	0.715477
251	C	0.465323	0.73499	0.928086
252	N	0.445609	0.725138	0.892845
253	C	0.707957	0.397276	0.007322
254	N	0.653518	0.369777	0.007811
255	C	0.62601	0.315337	0.007288
256	N	0.653512	0.2884	0.007791
257	C	0.707954	0.315333	0.007302
258	N	0.734893	0.369773	0.007825
259	C	0.819996	0.121354	0.011895
260	N	0.874434	0.148856	0.011376
261	C	0.901934	0.203294	0.011885
262	N	0.874433	0.230233	0.011398
263	C	0.819994	0.203298	0.011915
264	N	0.793058	0.148858	0.011408
265	C	0.735988	0.287302	0.00989
266	N	0.750064	0.273195	0.303713
267	C	0.777257	0.246	0.301488
268	C	0.791956	0.231329	0.009327
269	N	0.777883	0.245434	0.048837
270	C	0.750691	0.272632	0.051062
271	C	0.739667	0.283665	0.091105
272	C	0.788283	0.234964	0.261446
273	N	0.798138	0.225103	0.226207
274	N	0.72981	0.293522	0.126346
275	C	0.735995	0.453343	0.009901
276	N	0.750087	0.481514	0.303719
277	C	0.777281	0.035903	0.301483
278	C	0.791951	0.065285	0.009316
279	N	0.77786	0.037116	0.048832
280	C	0.750669	0.482727	0.051067
281	C	0.739642	0.46068	0.091114
282	C	0.788309	0.057952	0.261436
283	N	0.798165	0.077663	0.226194
284	N	0.72979	0.440976	0.126359
285	C	0.569941	0.287299	0.009871
286	N	0.541767	0.273209	0.303691
287	C	0.987379	0.246014	0.301462
288	C	0.958004	0.231335	0.009299
289	N	0.986179	0.245425	0.04881
290	C	0.540566	0.272619	0.05104
291	C	0.562619	0.283643	0.091085
292	C	0.965322	0.234989	0.261417
293	N	0.945607	0.225137	0.226177
294	N	0.58233	0.293494	0.126327
295	C	0.707957	0.397276	0.340655
296	N	0.653518	0.369777	0.341143
297	C	0.62601	0.315337	0.340621
298	N	0.653512	0.2884	0.341123
299	C	0.707954	0.315333	0.340634
300	N	0.734893	0.369773	0.341157
301	C	0.819996	0.121354	0.345228
302	N	0.874434	0.148856	0.344709
303	C	0.901934	0.203294	0.345218
304	N	0.874433	0.230233	0.344732
305	C	0.819994	0.203298	0.345249
306	N	0.793058	0.148858	0.344743
307	C	0.735988	0.287302	0.343225
308	N	0.750064	0.273195	0.637046
309	C	0.777257	0.246	0.634822
310	C	0.791956	0.231329	0.342661
311	N	0.777883	0.245434	0.382171
312	C	0.750691	0.272632	0.384395
313	C	0.739667	0.283665	0.42444
314	C	0.788283	0.234964	0.59478
315	N	0.798138	0.225103	0.559542
316	N	0.72981	0.293522	0.459678
317	C	0.735995	0.453343	0.343235
318	N	0.750087	0.481514	0.637053
319	C	0.777281	0.035903	0.634815
320	C	0.791951	0.065285	0.342648
321	N	0.77786	0.037116	0.382164
322	C	0.750669	0.482727	0.384401
323	C	0.739642	0.46068	0.424447
324	C	0.788309	0.057952	0.594769
325	N	0.798165	0.077663	0.559528
326	N	0.72979	0.440976	0.459692
327	C	0.569941	0.287299	0.343204
328	N	0.541767	0.273209	0.637026
329	C	0.987379	0.246014	0.634795
330	C	0.958004	0.231335	0.342631
331	N	0.986179	0.245425	0.382143
332	C	0.540566	0.272619	0.384374
333	C	0.562619	0.283643	0.42442
334	C	0.965322	0.234989	0.594752
335	N	0.945607	0.225137	0.559511
336	N	0.58233	0.293494	0.459661
337	C	0.707957	0.397276	0.673988
338	N	0.653518	0.369777	0.674477
339	C	0.62601	0.315337	0.673955
340	N	0.653512	0.2884	0.674457
341	C	0.707954	0.315333	0.673968
342	N	0.734893	0.369773	0.674491
343	C	0.819996	0.121354	0.678562
344	N	0.874434	0.148856	0.678043
345	C	0.901934	0.203294	0.678552
346	N	0.874433	0.230233	0.678066
347	C	0.819994	0.203298	0.678582
348	N	0.793058	0.148858	0.678077
349	C	0.735988	0.287302	0.676559
350	N	0.750064	0.273195	0.97038
351	C	0.777257	0.246	0.968156
352	C	0.791956	0.231329	0.675995
353	N	0.777883	0.245434	0.715505
354	C	0.750691	0.272632	0.717729
355	C	0.739667	0.283665	0.757774
356	C	0.788283	0.234964	0.928114
357	N	0.798138	0.225103	0.892876
358	N	0.72981	0.293522	0.793012
359	C	0.735995	0.453343	0.676569
360	N	0.750087	0.481514	0.970387
361	C	0.777281	0.035903	0.968149
362	C	0.791951	0.065285	0.675982
363	N	0.77786	0.037116	0.715498
364	C	0.750669	0.482727	0.717735
365	C	0.739642	0.46068	0.757781
366	C	0.788309	0.057952	0.928103
367	N	0.798165	0.077663	0.892862
368	N	0.72979	0.440976	0.793026
369	C	0.569941	0.287299	0.676538
370	N	0.541767	0.273209	0.97036
371	C	0.987379	0.246014	0.968129
372	C	0.958004	0.231335	0.675965
373	N	0.986179	0.245425	0.715477
374	C	0.540566	0.272619	0.717708
375	C	0.562619	0.283643	0.757754
376	C	0.965322	0.234989	0.928086
377	N	0.945607	0.225137	0.892845
378	N	0.58233	0.293494	0.792995
379	C	0.707956	0.897275	0.007322
380	N	0.653518	0.869778	0.007811
381	C	0.626009	0.815336	0.007288
382	N	0.653513	0.788399	0.007791
383	C	0.707952	0.815332	0.007302
384	N	0.734893	0.869774	0.007825
385	C	0.819997	0.621356	0.011895
386	N	0.874435	0.648857	0.011376
387	C	0.901935	0.703295	0.011885
388	N	0.874432	0.730232	0.011398
389	C	0.819994	0.703299	0.011915
390	N	0.793058	0.648857	0.011408
391	C	0.735989	0.787302	0.00989
392	N	0.750064	0.773196	0.303713
393	C	0.777257	0.745999	0.301488
394	C	0.791956	0.731329	0.009327
395	N	0.777883	0.745435	0.048837
396	C	0.750691	0.772632	0.051062
397	C	0.739667	0.783665	0.091105
398	C	0.788284	0.734966	0.261446
399	N	0.798137	0.725102	0.226207
400	N	0.729808	0.793521	0.126346
401	C	0.735994	0.953343	0.009901
402	N	0.750088	0.981514	0.303719
403	C	0.777282	0.535904	0.301483
404	C	0.791951	0.565283	0.009316
405	N	0.777861	0.537117	0.048832
406	C	0.750669	0.982727	0.051067
407	C	0.739643	0.96068	0.091114
408	C	0.788311	0.557955	0.261436
409	N	0.798165	0.577663	0.226194
410	N	0.729791	0.940976	0.126359
411	C	0.569943	0.787302	0.009871
412	N	0.541767	0.773208	0.303691
413	C	0.987379	0.746015	0.301462
414	C	0.958004	0.731333	0.009299
415	N	0.986179	0.745427	0.04881
416	C	0.540566	0.77262	0.05104
417	C	0.56262	0.783645	0.091085
418	C	0.965322	0.73499	0.261417
419	N	0.945607	0.725138	0.226177
420	N	0.582329	0.793493	0.126327
421	C	0.707956	0.897275	0.340655
422	N	0.653518	0.869778	0.341143
423	C	0.626009	0.815336	0.340621
424	N	0.653513	0.788399	0.341123
425	C	0.707952	0.815332	0.340634
426	N	0.734893	0.869774	0.341157
427	C	0.819997	0.621356	0.345228
428	N	0.874435	0.648857	0.344709
429	C	0.901935	0.703295	0.345218
430	N	0.874432	0.730232	0.344732
431	C	0.819994	0.703299	0.345249
432	N	0.793058	0.648857	0.344743
433	C	0.735989	0.787302	0.343225
434	N	0.750064	0.773196	0.637046
435	C	0.777257	0.745999	0.634822
436	C	0.791956	0.731329	0.342661
437	N	0.777883	0.745435	0.382171
438	C	0.750691	0.772632	0.384395
439	C	0.739667	0.783665	0.42444
440	C	0.788284	0.734966	0.59478
441	N	0.798137	0.725102	0.559542
442	N	0.729808	0.793521	0.459678
443	C	0.735994	0.953343	0.343235
444	N	0.750088	0.981514	0.637053
445	C	0.777282	0.535904	0.634815
446	C	0.791951	0.565283	0.342648
447	N	0.777861	0.537117	0.382164
448	C	0.750669	0.982727	0.384401
449	C	0.739643	0.96068	0.424447
450	C	0.788311	0.557955	0.594769
451	N	0.798165	0.577663	0.559528
452	N	0.729791	0.940976	0.459692
453	C	0.569943	0.787302	0.343204
454	N	0.541767	0.773208	0.637026
455	C	0.987379	0.746015	0.634795
456	C	0.958004	0.731333	0.342631
457	N	0.986179	0.745427	0.382143
458	C	0.540566	0.77262	0.384374
459	C	0.56262	0.783645	0.42442
460	C	0.965322	0.73499	0.594752
461	N	0.945607	0.725138	0.559511
462	N	0.582329	0.793493	0.459661
463	C	0.707956	0.897275	0.673988
464	N	0.653518	0.869778	0.674477
465	C	0.626009	0.815336	0.673955
466	N	0.653513	0.788399	0.674457
467	C	0.707952	0.815332	0.673968
468	N	0.734893	0.869774	0.674491
469	C	0.819997	0.621356	0.678562
470	N	0.874435	0.648857	0.678043
471	C	0.901935	0.703295	0.678552
472	N	0.874432	0.730232	0.678066
473	C	0.819994	0.703299	0.678582
474	N	0.793058	0.648857	0.678077
475	C	0.735989	0.787302	0.676559
476	N	0.750064	0.773196	0.97038
477	C	0.777257	0.745999	0.968156
478	C	0.791956	0.731329	0.675995
479	N	0.777883	0.745435	0.715505
480	C	0.750691	0.772632	0.717729
481	C	0.739667	0.783665	0.757774
482	C	0.788284	0.734966	0.928114
483	N	0.798137	0.725102	0.892876
484	N	0.729808	0.793521	0.793012
485	C	0.735994	0.953343	0.676569
486	N	0.750088	0.981514	0.970387
487	C	0.777282	0.535904	0.968149
488	C	0.791951	0.565283	0.675982
489	N	0.777861	0.537117	0.715498
490	C	0.750669	0.982727	0.717735
491	C	0.739643	0.96068	0.757781
492	C	0.788311	0.557955	0.928103
493	N	0.798165	0.577663	0.892862
494	N	0.729791	0.940976	0.793026
495	C	0.569943	0.787302	0.676538
496	N	0.541767	0.773208	0.97036
497	C	0.987379	0.746015	0.968129
498	C	0.958004	0.731333	0.675965
499	N	0.986179	0.745427	0.715477
500	C	0.540566	0.77262	0.717708
501	C	0.56262	0.783645	0.757754
502	C	0.965322	0.73499	0.928086
503	N	0.945607	0.725138	0.892845
504	N	0.582329	0.793493	0.792995
