data_C288H144N36O72_2018-02-15_10:39:02
#******************************************
#
# CIF file created by Zeo++
# Zeo++ is an open source package to
# analyze microporous materials
#
#*******************************************

_cell_length_a		34.3313   
_cell_length_b		34.3417   
_cell_length_c		29.6342   
_cell_angle_alpha		90   
_cell_angle_beta		90   
_cell_angle_gamma		119.993   

_symmetry_space_group_name_H-M		'P1'
_symmetry_Int_Tables_number		1
_symmetry_cell_setting		Monoclinic

loop_
_symmetry_equiv_pos_as_xyz
'+x,+y,+z'

loop_
_atom_site_label
_atom_site_type_symbol
_atom_site_fract_x
_atom_site_fract_y
_atom_site_fract_z
1	C	0.92559	0.044847	0.037488
2	O	0.254036	0.045876	0.064064
3	H	0.919226	0.022055	0.062717
4	H	0.879854	0.063134	0.063027
5	C	0.902628	0.069225	0.037827
6	N	0.245354	0.077096	0.068983
7	H	0.398281	0.137588	0.01392
8	C	0.269853	0.112452	0.037961
9	C	0.317577	0.136516	0.037866
10	C	0.126476	0.084499	0.03753
11	C	0.173819	0.107506	0.037864
12	C	0.667055	0.150443	0.031237
13	C	0.622112	0.140838	0.033641
14	H	0.334077	0.128531	0.061641
15	H	0.11002	0.090839	0.062756
16	H	0.190477	0.130284	0.06306
17	H	0.679484	0.139887	0.056944
18	H	0.602938	0.12255	0.060518
19	O	0.253714	0.090783	0.10906
20	C	0.462749	0.195068	0.013016
21	C	0.486061	0.242195	0.007938
22	C	0.391019	0.195296	0.006901
23	C	0.415262	0.171926	0.01147
24	H	0.520587	0.259183	0.00836
25	C	0.815303	0.270749	0.013004
26	C	0.768163	0.246955	0.007925
27	C	0.815047	0.198798	0.006872
28	C	0.83844	0.246401	0.011449
29	H	0.872788	0.263744	0.013897
30	H	0.751179	0.264495	0.008348
31	C	0.739542	0.547482	0.013027
32	C	0.763362	0.524162	0.007954
33	C	0.811495	0.61918	0.006896
34	C	0.763876	0.594952	0.011469
35	H	0.746516	0.611938	0.013912
36	H	0.745828	0.489647	0.008383
37	C	0.897824	0.160374	0.037922
38	C	0.873807	0.18408	0.037822
39	C	0.849824	0.740328	0.037943
40	C	0.826155	0.692616	0.037847
41	C	0.965269	0.88364	0.03753
42	C	0.940926	0.836311	0.037867
43	C	0.563174	0.158191	0.011469
44	C	0.558348	0.180468	0.04971
45	C	0.520844	0.187017	0.052515
46	C	0.488789	0.173491	0.01738
47	C	0.859919	0.51961	0.03127
48	C	0.869521	0.484277	0.03366
49	C	0.85217	0.40801	0.011465
50	C	0.829914	0.380915	0.049715
51	C	0.823378	0.336877	0.052516
52	C	0.836895	0.318357	0.017368
53	C	0.490612	0.343255	0.031265
54	C	0.525952	0.388184	0.033668
55	C	0.602237	0.447095	0.011477
56	C	0.629342	0.451917	0.049718
57	C	0.673398	0.489411	0.052524
58	C	0.691919	0.521452	0.017388
59	C	0.342707	0.171423	0.006576
60	C	0.838898	0.174342	0.006534
61	C	0.835934	0.667477	0.006567
62	H	0.881825	0.208567	0.061595
63	N	0.933181	0.171187	0.068944
64	O	0.964448	0.211062	0.064021
65	H	0.80166	0.676135	0.061615
66	H	0.988054	0.900081	0.062766
67	H	0.947031	0.819652	0.063074
68	N	0.838963	0.764835	0.068956
69	O	0.799061	0.756181	0.06402
70	H	0.870475	0.542584	0.056982
71	H	0.887816	0.483386	0.060534
72	H	0.46764	0.330834	0.056983
73	H	0.526844	0.407348	0.060555
74	H	0.519701	0.206254	0.078357
75	H	0.804153	0.316505	0.078366
76	H	0.693776	0.490548	0.078367
77	O	0.919492	0.165883	0.109021
78	O	0.844273	0.75647	0.109036
79	N	0.592967	0.199731	0.082553
80	O	0.578446	0.184206	0.12121
81	O	0.610928	0.241836	0.083888
82	N	0.810656	0.39626	0.082575
83	O	0.826206	0.397272	0.121222
84	O	0.76854	0.372109	0.083932
85	N	0.613999	0.417313	0.082563
86	O	0.612993	0.431831	0.121219
87	O	0.638157	0.399353	0.083898
88	C	0.053797	0.02826	0.004021
89	C	0.029439	0.051512	0.004021
90	C	0.981821	0.028367	0.003997
91	C	0.126305	0.044289	0.303595
92	C	0.101871	0.052226	0.337251
93	H	0.109265	0.021432	0.278583
94	O	0.189173	0.019572	0.269138
95	C	0.957857	0.052477	0.337207
96	C	0.053797	0.02826	0.337355
97	C	0.029439	0.051512	0.337354
98	C	0.981821	0.028367	0.337332
99	C	0.126305	0.044289	0.636927
100	C	0.101871	0.052226	0.670584
101	H	0.109265	0.021432	0.611916
102	O	0.254036	0.045876	0.397396
103	O	0.189173	0.019572	0.60247
104	C	0.957857	0.052477	0.670541
105	C	0.92559	0.044847	0.370822
106	H	0.919226	0.022055	0.39605
107	C	0.053797	0.02826	0.670689
108	C	0.029439	0.051512	0.670686
109	C	0.981821	0.028367	0.670665
110	C	0.126305	0.044289	0.970262
111	C	0.101871	0.052226	0.003916
112	H	0.109265	0.021432	0.945247
113	O	0.254036	0.045876	0.730728
114	O	0.189173	0.019572	0.935802
115	C	0.957857	0.052477	0.003872
116	C	0.92559	0.044847	0.704154
117	H	0.919226	0.022055	0.729381
118	C	0.17403	0.067861	0.302955
119	N	0.198125	0.059799	0.268954
120	C	0.17403	0.067861	0.636286
121	N	0.198125	0.059799	0.602288
122	H	0.879854	0.063134	0.39636
123	C	0.17403	0.067861	0.969621
124	N	0.198125	0.059799	0.93562
125	H	0.879854	0.063134	0.729692
126	O	0.189581	0.069028	0.230481
127	N	0.245354	0.077096	0.402316
128	O	0.189581	0.069028	0.563812
129	C	0.902628	0.069225	0.37116
130	N	0.245354	0.077096	0.735648
131	O	0.189581	0.069028	0.897147
132	C	0.902628	0.069225	0.704491
133	H	0.046712	0.085967	0.003987
134	H	0.749637	0.141859	0.999536
135	C	0.246151	0.123305	0.339105
136	C	0.198155	0.099694	0.337374
137	C	0.828624	0.139688	0.308154
138	C	0.852289	0.116005	0.3076
139	C	0.88692	0.125811	0.339072
140	C	0.910482	0.101382	0.337341
141	C	0.942308	0.109048	0.302917
142	C	0.965834	0.084851	0.303552
143	H	0.988694	0.090647	0.278542
144	H	0.804253	0.131923	0.284303
145	H	0.843942	0.091361	0.283897
146	N	0.950416	0.141211	0.26892
147	O	0.941163	0.123448	0.230445
148	C	0.492655	0.14944	0.314036
149	C	0.529112	0.141579	0.31139
150	H	0.471551	0.141389	0.286878
151	H	0.532639	0.12691	0.282764
152	H	0.046712	0.085967	0.337322
153	H	0.398281	0.137588	0.347251
154	H	0.749637	0.141859	0.332872
155	C	0.246151	0.123305	0.672437
156	C	0.269853	0.112452	0.371295
157	C	0.317577	0.136516	0.3712
158	H	0.334077	0.128531	0.394973
159	C	0.198155	0.099694	0.670706
160	C	0.126476	0.084499	0.370863
161	C	0.173819	0.107506	0.371197
162	H	0.11002	0.090839	0.39609
163	H	0.190477	0.130284	0.396394
164	O	0.253714	0.090783	0.442392
165	C	0.828624	0.139688	0.641486
166	C	0.852289	0.116005	0.640933
167	C	0.88692	0.125811	0.672407
168	C	0.910482	0.101382	0.670675
169	C	0.942308	0.109048	0.636249
170	C	0.965834	0.084851	0.636883
171	H	0.988694	0.090647	0.611875
172	H	0.804253	0.131923	0.617635
173	H	0.843942	0.091361	0.61723
174	N	0.950416	0.141211	0.602254
175	O	0.941163	0.123448	0.563779
176	C	0.667055	0.150443	0.364569
177	C	0.622112	0.140838	0.366975
178	C	0.492655	0.14944	0.647368
179	C	0.529112	0.141579	0.644722
180	H	0.471551	0.141389	0.62021
181	H	0.679484	0.139887	0.390276
182	H	0.532639	0.12691	0.616097
183	H	0.602938	0.12255	0.39385
184	H	0.046712	0.085967	0.670655
185	H	0.398281	0.137588	0.680586
186	H	0.749637	0.141859	0.666204
187	C	0.246151	0.123305	0.005769
188	C	0.269853	0.112452	0.704626
189	C	0.317577	0.136516	0.704532
190	H	0.334077	0.128531	0.728308
191	C	0.198155	0.099694	0.004041
192	C	0.126476	0.084499	0.704194
193	C	0.173819	0.107506	0.704528
194	H	0.11002	0.090839	0.729422
195	H	0.190477	0.130284	0.729726
196	O	0.253714	0.090783	0.775727
197	C	0.828624	0.139688	0.974818
198	C	0.852289	0.116005	0.974264
199	C	0.88692	0.125811	0.005738
200	C	0.910482	0.101382	0.004007
201	C	0.942308	0.109048	0.969584
202	C	0.965834	0.084851	0.970218
203	H	0.988694	0.090647	0.945207
204	H	0.804253	0.131923	0.950967
205	H	0.843942	0.091361	0.950562
206	N	0.950416	0.141211	0.935586
207	O	0.941163	0.123448	0.89711
208	C	0.667055	0.150443	0.697904
209	C	0.622112	0.140838	0.700307
210	C	0.492655	0.14944	0.980703
211	C	0.529112	0.141579	0.978057
212	H	0.471551	0.141389	0.953545
213	H	0.679484	0.139887	0.723611
214	H	0.532639	0.12691	0.949428
215	H	0.602938	0.12255	0.727185
216	C	0.958563	0.980766	0.004014
217	C	0.981721	0.956309	0.004014
218	C	0.029339	0.980658	0.004034
219	H	0.9241	0.963585	0.003977
220	H	0.046533	0.963387	0.00401
221	C	0.463505	0.266702	0.002114
222	C	0.415958	0.242916	0.002637
223	H	0.399426	0.260672	0.99956
224	C	0.743633	0.199904	0.002097
225	C	0.767413	0.176138	0.002617
226	C	0.810426	0.546699	0.002114
227	C	0.834181	0.594233	0.002637
228	H	0.868471	0.610748	0.999566
229	C	0.342707	0.171423	0.339908
230	C	0.318287	0.181653	0.308193
231	C	0.270936	0.15794	0.307634
232	H	0.334864	0.206019	0.284341
233	H	0.254606	0.166251	0.283928
234	C	0.838898	0.174342	0.339868
235	O	0.990673	0.172444	0.269106
236	C	0.835934	0.667477	0.339898
237	C	0.870599	0.691876	0.308194
238	C	0.894247	0.739216	0.307636
239	C	0.884393	0.764008	0.339099
240	C	0.90879	0.811993	0.337366
241	C	0.901102	0.836123	0.302933
242	C	0.925263	0.883835	0.303571
243	C	0.957622	0.908251	0.337238
244	H	0.919457	0.900878	0.27855
245	H	0.878394	0.675294	0.284348
246	H	0.918897	0.755529	0.283937
247	N	0.86896	0.81205	0.26892
248	O	0.886749	0.82058	0.230455
249	O	0.837687	0.821023	0.26908
250	C	0.696046	0.17902	0.997235
251	C	0.604998	0.159924	0.00259
252	C	0.633329	0.187031	0.300281
253	C	0.677999	0.195338	0.297592
254	H	0.698879	0.217283	0.273526
255	N	0.61838	0.208979	0.270212
256	O	0.61972	0.198337	0.229901
257	O	0.641337	0.251051	0.273805
258	C	0.831337	0.520013	0.997268
259	C	0.85043	0.44809	0.0026
260	C	0.823315	0.449321	0.300292
261	C	0.815008	0.485676	0.297608
262	H	0.793061	0.484617	0.273542
263	C	0.860921	0.346268	0.314012
264	C	0.868774	0.390567	0.311371
265	H	0.868963	0.333219	0.286845
266	H	0.883427	0.408757	0.28274
267	N	0.801361	0.412442	0.270216
268	O	0.812009	0.424428	0.229907
269	O	0.759276	0.393328	0.273808
270	C	0.490188	0.314278	0.997245
271	C	0.562143	0.40529	0.002603
272	C	0.560906	0.376971	0.300279
273	C	0.52454	0.332317	0.297589
274	H	0.5256	0.311445	0.273513
275	C	0.663996	0.517589	0.314043
276	C	0.619682	0.48115	0.311398
277	H	0.677045	0.538687	0.286886
278	H	0.601481	0.477627	0.282773
279	N	0.59779	0.391906	0.270194
280	O	0.585793	0.390577	0.22989
281	O	0.616912	0.368942	0.273764
282	C	0.958563	0.980766	0.337348
283	C	0.981721	0.956309	0.337349
284	C	0.029339	0.980658	0.337369
285	H	0.9241	0.963585	0.337311
286	H	0.046533	0.963387	0.337344
287	C	0.462749	0.195068	0.34635
288	C	0.486061	0.242195	0.341272
289	C	0.463505	0.266702	0.335447
290	C	0.415958	0.242916	0.335972
291	C	0.391019	0.195296	0.340232
292	C	0.415262	0.171926	0.344801
293	H	0.399426	0.260672	0.332894
294	H	0.520587	0.259183	0.341694
295	C	0.815303	0.270749	0.346337
296	C	0.768163	0.246955	0.341258
297	C	0.743633	0.199904	0.335432
298	C	0.767413	0.176138	0.335951
299	C	0.815047	0.198798	0.340205
300	C	0.83844	0.246401	0.344781
301	H	0.872788	0.263744	0.347231
302	H	0.751179	0.264495	0.34168
303	C	0.739542	0.547482	0.34636
304	C	0.763362	0.524162	0.341289
305	C	0.810426	0.546699	0.335447
306	C	0.834181	0.594233	0.335971
307	C	0.811495	0.61918	0.340229
308	C	0.763876	0.594952	0.344801
309	H	0.868471	0.610748	0.332899
310	H	0.746516	0.611938	0.347245
311	H	0.745828	0.489647	0.341717
312	C	0.342707	0.171423	0.67324
313	C	0.318287	0.181653	0.641527
314	C	0.270936	0.15794	0.640967
315	H	0.334864	0.206019	0.617672
316	H	0.254606	0.166251	0.617261
317	C	0.838898	0.174342	0.6732
318	C	0.897824	0.160374	0.371254
319	C	0.873807	0.18408	0.371156
320	H	0.881825	0.208567	0.394926
321	N	0.933181	0.171187	0.402276
322	O	0.919492	0.165883	0.442354
323	O	0.964448	0.211062	0.397352
324	O	0.990673	0.172444	0.60244
325	C	0.835934	0.667477	0.673233
326	C	0.870599	0.691876	0.641527
327	C	0.894247	0.739216	0.64097
328	C	0.884393	0.764008	0.67243
329	C	0.849824	0.740328	0.371274
330	C	0.826155	0.692616	0.37118
331	H	0.80166	0.676135	0.394946
332	C	0.90879	0.811993	0.670699
333	C	0.901102	0.836123	0.636266
334	C	0.925263	0.883835	0.636904
335	C	0.957622	0.908251	0.670571
336	C	0.965269	0.88364	0.370863
337	C	0.940926	0.836311	0.3712
338	H	0.919457	0.900878	0.611882
339	H	0.988054	0.900081	0.3961
340	H	0.878394	0.675294	0.617683
341	H	0.947031	0.819652	0.396407
342	H	0.918897	0.755529	0.617271
343	N	0.838963	0.764835	0.402289
344	N	0.86896	0.81205	0.602254
345	O	0.886749	0.82058	0.563789
346	O	0.844273	0.75647	0.442368
347	O	0.799061	0.756181	0.397352
348	O	0.837687	0.821023	0.602413
349	C	0.696046	0.17902	0.330569
350	C	0.604998	0.159924	0.335923
351	C	0.633329	0.187031	0.633614
352	C	0.677999	0.195338	0.630924
353	H	0.698879	0.217283	0.606861
354	C	0.563174	0.158191	0.344801
355	C	0.558348	0.180468	0.383045
356	C	0.520844	0.187017	0.385849
357	C	0.488789	0.173491	0.350714
358	H	0.519701	0.206254	0.411691
359	N	0.61838	0.208979	0.603543
360	N	0.592967	0.199731	0.415885
361	O	0.578446	0.184206	0.454543
362	O	0.61972	0.198337	0.563235
363	O	0.641337	0.251051	0.607137
364	O	0.610928	0.241836	0.417221
365	C	0.831337	0.520013	0.330603
366	C	0.859919	0.51961	0.364603
367	C	0.869521	0.484277	0.366992
368	C	0.85043	0.44809	0.335934
369	C	0.823315	0.449321	0.633624
370	C	0.815008	0.485676	0.630941
371	H	0.793061	0.484617	0.606874
372	C	0.85217	0.40801	0.344798
373	C	0.829914	0.380915	0.383048
374	C	0.823378	0.336877	0.385849
375	C	0.836895	0.318357	0.3507
376	C	0.860921	0.346268	0.647344
377	C	0.868774	0.390567	0.644705
378	H	0.804153	0.316505	0.411701
379	H	0.868963	0.333219	0.62018
380	H	0.870475	0.542584	0.390313
381	H	0.883427	0.408757	0.616073
382	H	0.887816	0.483386	0.393866
383	N	0.801361	0.412442	0.60355
384	N	0.810656	0.39626	0.415909
385	O	0.826206	0.397272	0.454553
386	O	0.812009	0.424428	0.563239
387	O	0.759276	0.393328	0.607141
388	O	0.76854	0.372109	0.417265
389	C	0.490188	0.314278	0.330579
390	C	0.490612	0.343255	0.364596
391	C	0.525952	0.388184	0.367002
392	C	0.562143	0.40529	0.335936
393	C	0.560906	0.376971	0.63361
394	C	0.52454	0.332317	0.630921
395	H	0.5256	0.311445	0.606847
396	C	0.602237	0.447095	0.344812
397	C	0.629342	0.451917	0.383051
398	C	0.673398	0.489411	0.385855
399	C	0.691919	0.521452	0.35072
400	C	0.663996	0.517589	0.647375
401	C	0.619682	0.48115	0.644732
402	H	0.693776	0.490548	0.411701
403	H	0.677045	0.538687	0.62022
404	H	0.46764	0.330834	0.390317
405	H	0.601481	0.477627	0.616107
406	H	0.526844	0.407348	0.393887
407	N	0.59779	0.391906	0.603527
408	N	0.613999	0.417313	0.415895
409	O	0.612993	0.431831	0.454553
410	O	0.585793	0.390577	0.563222
411	O	0.616912	0.368942	0.607097
412	O	0.638157	0.399353	0.417231
413	C	0.958563	0.980766	0.670682
414	C	0.981721	0.956309	0.670682
415	C	0.029339	0.980658	0.670702
416	H	0.9241	0.963585	0.670645
417	H	0.046533	0.963387	0.670675
418	C	0.462749	0.195068	0.679682
419	C	0.486061	0.242195	0.674603
420	C	0.463505	0.266702	0.668779
421	C	0.415958	0.242916	0.669305
422	C	0.391019	0.195296	0.673567
423	C	0.415262	0.171926	0.678136
424	H	0.399426	0.260672	0.666228
425	H	0.520587	0.259183	0.675025
426	C	0.815303	0.270749	0.679668
427	C	0.768163	0.246955	0.67459
428	C	0.743633	0.199904	0.668766
429	C	0.767413	0.176138	0.669285
430	C	0.815047	0.198798	0.673537
431	C	0.83844	0.246401	0.678113
432	H	0.872788	0.263744	0.680563
433	H	0.751179	0.264495	0.675015
434	C	0.739542	0.547482	0.679692
435	C	0.763362	0.524162	0.67462
436	C	0.810426	0.546699	0.668779
437	C	0.834181	0.594233	0.669305
438	C	0.811495	0.61918	0.673561
439	C	0.763876	0.594952	0.678133
440	H	0.868471	0.610748	0.666231
441	H	0.746516	0.611938	0.680576
442	H	0.745828	0.489647	0.675049
443	C	0.318287	0.181653	0.974858
444	C	0.270936	0.15794	0.974298
445	H	0.334864	0.206019	0.951007
446	H	0.254606	0.166251	0.950592
447	C	0.897824	0.160374	0.704589
448	C	0.873807	0.18408	0.704488
449	H	0.881825	0.208567	0.728261
450	N	0.933181	0.171187	0.735611
451	O	0.919492	0.165883	0.775686
452	O	0.964448	0.211062	0.730687
453	O	0.990673	0.172444	0.935772
454	C	0.870599	0.691876	0.974858
455	C	0.894247	0.739216	0.974302
456	C	0.884393	0.764008	0.005762
457	C	0.849824	0.740328	0.704609
458	C	0.826155	0.692616	0.704511
459	H	0.80166	0.676135	0.728281
460	C	0.90879	0.811993	0.004031
461	C	0.901102	0.836123	0.969597
462	C	0.925263	0.883835	0.970235
463	C	0.957622	0.908251	0.003902
464	C	0.965269	0.88364	0.704198
465	C	0.940926	0.836311	0.704532
466	H	0.919457	0.900878	0.945217
467	H	0.988054	0.900081	0.729432
468	H	0.878394	0.675294	0.951014
469	H	0.947031	0.819652	0.729739
470	H	0.918897	0.755529	0.950603
471	N	0.838963	0.764835	0.735621
472	N	0.86896	0.81205	0.935586
473	O	0.886749	0.82058	0.89712
474	O	0.844273	0.75647	0.775703
475	O	0.799061	0.756181	0.730684
476	O	0.837687	0.821023	0.935745
477	C	0.696046	0.17902	0.663903
478	C	0.604998	0.159924	0.669255
479	C	0.633329	0.187031	0.966945
480	C	0.677999	0.195338	0.964259
481	H	0.698879	0.217283	0.940192
482	C	0.563174	0.158191	0.678136
483	C	0.558348	0.180468	0.716376
484	C	0.520844	0.187017	0.71918
485	C	0.488789	0.173491	0.684045
486	H	0.519701	0.206254	0.745022
487	N	0.61838	0.208979	0.936878
488	N	0.592967	0.199731	0.74922
489	O	0.578446	0.184206	0.787875
490	O	0.61972	0.198337	0.896567
491	O	0.641337	0.251051	0.940469
492	O	0.610928	0.241836	0.750553
493	C	0.831337	0.520013	0.663937
494	C	0.859919	0.51961	0.697935
495	C	0.869521	0.484277	0.700327
496	C	0.85043	0.44809	0.669265
497	C	0.823315	0.449321	0.966959
498	C	0.815008	0.485676	0.964273
499	H	0.793061	0.484617	0.940209
500	C	0.85217	0.40801	0.67813
501	C	0.829914	0.380915	0.71638
502	C	0.823378	0.336877	0.719184
503	C	0.836895	0.318357	0.684035
504	C	0.860921	0.346268	0.980679
505	C	0.868774	0.390567	0.978037
506	H	0.804153	0.316505	0.745032
507	H	0.868963	0.333219	0.953511
508	H	0.870475	0.542584	0.723648
509	H	0.883427	0.408757	0.949405
510	H	0.887816	0.483386	0.727198
511	N	0.801361	0.412442	0.936882
512	N	0.810656	0.39626	0.74924
513	O	0.826206	0.397272	0.787888
514	O	0.812009	0.424428	0.896574
515	O	0.759276	0.393328	0.940472
516	O	0.76854	0.372109	0.750597
517	C	0.490188	0.314278	0.663913
518	C	0.490612	0.343255	0.697931
519	C	0.525952	0.388184	0.700334
520	C	0.562143	0.40529	0.669268
521	C	0.560906	0.376971	0.966945
522	C	0.52454	0.332317	0.964256
523	H	0.5256	0.311445	0.940179
524	C	0.602237	0.447095	0.678143
525	C	0.629342	0.451917	0.716383
526	C	0.673398	0.489411	0.71919
527	C	0.691919	0.521452	0.684055
528	C	0.663996	0.517589	0.98071
529	C	0.619682	0.48115	0.978064
530	H	0.693776	0.490548	0.745032
531	H	0.677045	0.538687	0.953552
532	H	0.46764	0.330834	0.723648
533	H	0.601481	0.477627	0.949438
534	H	0.526844	0.407348	0.727222
535	N	0.59779	0.391906	0.936858
536	N	0.613999	0.417313	0.749227
537	O	0.612993	0.431831	0.787885
538	O	0.585793	0.390577	0.896557
539	O	0.616912	0.368942	0.940428
540	O	0.638157	0.399353	0.750563
