data_C288H144N72_2018-02-15_10:39:53
#******************************************
#
# CIF file created by Zeo++
# Zeo++ is an open source package to
# analyze microporous materials
#
#*******************************************

_cell_length_a		29.2147   
_cell_length_b		29.2147   
_cell_length_c		29.5234   
_cell_angle_alpha		90   
_cell_angle_beta		90   
_cell_angle_gamma		120   

_symmetry_space_group_name_H-M		'P1'
_symmetry_Int_Tables_number		1
_symmetry_cell_setting		Monoclinic

loop_
_symmetry_equiv_pos_as_xyz
'+x,+y,+z'

loop_
_atom_site_label
_atom_site_type_symbol
_atom_site_fract_x
_atom_site_fract_y
_atom_site_fract_z
1	C	0.122701	0.313362	0.008133
2	N	0.039909	0.271939	0.302245
3	C	0.067177	0.285591	0.008621
4	C	0.037983	0.271034	0.049359
5	H	0.05635	0.280233	0.080198
6	C	0.122701	0.313362	0.341465
7	N	0.039909	0.271939	0.635578
8	C	0.067177	0.285591	0.341953
9	C	0.037983	0.271034	0.382693
10	H	0.05635	0.280233	0.413533
11	C	0.122701	0.313362	0.674797
12	N	0.039909	0.271939	0.96891
13	C	0.067177	0.285591	0.675289
14	C	0.037983	0.271034	0.716026
15	H	0.05635	0.280233	0.746866
16	C	0.122702	0.813362	0.008133
17	N	0.039909	0.77194	0.302245
18	C	0.067178	0.785592	0.008621
19	C	0.037985	0.771035	0.049359
20	H	0.05635	0.780232	0.080198
21	C	0.122702	0.813362	0.341465
22	N	0.039909	0.77194	0.635578
23	C	0.067178	0.785592	0.341953
24	C	0.037985	0.771035	0.382693
25	H	0.05635	0.780232	0.413533
26	C	0.122702	0.813362	0.674797
27	N	0.039909	0.77194	0.96891
28	C	0.067178	0.785592	0.675289
29	C	0.037985	0.771035	0.716026
30	H	0.05635	0.780232	0.746866
31	C	0.150935	0.369226	0.008153
32	C	0.150958	0.285754	0.008114
33	H	0.130701	0.245227	0.008291
34	H	0.130664	0.389482	0.008335
35	C	0.150935	0.369226	0.341485
36	C	0.150958	0.285754	0.341448
37	H	0.130701	0.245227	0.341624
38	H	0.130664	0.389482	0.341668
39	C	0.150935	0.369226	0.674818
40	C	0.150958	0.285754	0.67478
41	H	0.130701	0.245227	0.674957
42	H	0.130664	0.389482	0.675001
43	C	0.150936	0.869226	0.008153
44	C	0.150958	0.785754	0.008114
45	H	0.130703	0.745229	0.008291
46	H	0.130665	0.889482	0.008335
47	C	0.150936	0.869226	0.341485
48	C	0.150958	0.785754	0.341448
49	H	0.130703	0.745229	0.341624
50	H	0.130665	0.889482	0.341668
51	C	0.150936	0.869226	0.674818
52	C	0.150958	0.785754	0.67478
53	H	0.130703	0.745229	0.674957
54	H	0.130665	0.889482	0.675001
55	C	0.206798	0.39748	0.008141
56	C	0.234429	0.369247	0.008132
57	C	0.206823	0.313383	0.008121
58	C	0.234594	0.285628	0.008615
59	H	0.240021	0.280236	0.080194
60	C	0.234551	0.453004	0.008627
61	H	0.239924	0.463838	0.080204
62	C	0.206798	0.39748	0.341475
63	C	0.234429	0.369247	0.341465
64	C	0.206823	0.313383	0.341455
65	C	0.234594	0.285628	0.341949
66	H	0.240021	0.280236	0.413526
67	C	0.234551	0.453004	0.341959
68	H	0.239924	0.463838	0.413537
69	C	0.206798	0.39748	0.674808
70	C	0.234429	0.369247	0.674797
71	C	0.206823	0.313383	0.674787
72	C	0.234594	0.285628	0.675282
73	H	0.240021	0.280236	0.746859
74	C	0.234551	0.453004	0.675292
75	H	0.239924	0.463838	0.746869
76	C	0.2068	0.897482	0.008141
77	C	0.234431	0.86925	0.008132
78	C	0.206823	0.813382	0.008121
79	C	0.234594	0.785628	0.008615
80	H	0.240021	0.780236	0.080194
81	C	0.234553	0.953006	0.008627
82	H	0.239925	0.96384	0.080204
83	C	0.2068	0.897482	0.341475
84	C	0.234431	0.86925	0.341465
85	C	0.206823	0.813382	0.341455
86	C	0.234594	0.785628	0.341949
87	H	0.240021	0.780236	0.413526
88	C	0.234553	0.953006	0.341959
89	H	0.239925	0.96384	0.413537
90	C	0.2068	0.897482	0.674808
91	C	0.234431	0.86925	0.674797
92	C	0.206823	0.813382	0.674787
93	C	0.234594	0.785628	0.675282
94	H	0.240021	0.780236	0.746859
95	C	0.234553	0.953006	0.675292
96	H	0.239925	0.96384	0.746869
97	H	0.274957	0.389519	0.008307
98	C	0.401517	0.202783	0.008097
99	C	0.373283	0.146919	0.008077
100	C	0.317419	0.118664	0.008093
101	C	0.289789	0.146898	0.008107
102	C	0.317396	0.202763	0.008109
103	C	0.373261	0.230392	0.008114
104	H	0.249262	0.126626	0.007923
105	H	0.393517	0.270919	0.007933
106	H	0.393554	0.126663	0.007893
107	C	0.275026	0.245108	0.300207
108	N	0.248204	0.271962	0.302243
109	C	0.249193	0.271038	0.049356
110	N	0.276014	0.244183	0.04732
111	C	0.289624	0.230517	0.007615
112	H	0.284197	0.235909	0.269369
113	C	0.275087	0.033944	0.300203
114	N	0.248232	0.480272	0.302249
115	C	0.249131	0.482201	0.049363
116	N	0.275988	0.035875	0.047318
117	C	0.289666	0.06314	0.007605
118	H	0.284295	0.052308	0.269362
119	C	0.486236	0.245111	0.300202
120	N	0.484308	0.244207	0.047317
121	C	0.457041	0.230554	0.007605
122	H	0.467869	0.235912	0.269363
123	H	0.274957	0.389519	0.341641
124	C	0.401517	0.202783	0.341431
125	C	0.373283	0.146919	0.341411
126	C	0.317419	0.118664	0.341428
127	C	0.289789	0.146898	0.341441
128	C	0.317396	0.202763	0.341441
129	C	0.373261	0.230392	0.341448
130	H	0.249262	0.126626	0.341258
131	H	0.393517	0.270919	0.341269
132	H	0.393554	0.126663	0.341228
133	C	0.275026	0.245108	0.633539
134	N	0.248204	0.271962	0.635574
135	C	0.249193	0.271038	0.38269
136	N	0.276014	0.244183	0.380654
137	C	0.289624	0.230517	0.340947
138	H	0.284197	0.235909	0.602702
139	C	0.275087	0.033944	0.633535
140	N	0.248232	0.480272	0.635581
141	C	0.249131	0.482201	0.382697
142	N	0.275988	0.035875	0.380651
143	C	0.289666	0.06314	0.34094
144	H	0.284295	0.052308	0.602695
145	C	0.486236	0.245111	0.633535
146	N	0.484308	0.244207	0.380651
147	C	0.457041	0.230554	0.34094
148	H	0.467869	0.235912	0.602695
149	H	0.274957	0.389519	0.674974
150	C	0.401517	0.202783	0.674764
151	C	0.373283	0.146919	0.674743
152	C	0.317419	0.118664	0.67476
153	C	0.289789	0.146898	0.674774
154	C	0.317396	0.202763	0.674777
155	C	0.373261	0.230392	0.67478
156	H	0.249262	0.126626	0.674591
157	H	0.393517	0.270919	0.674601
158	H	0.393554	0.126663	0.67456
159	C	0.275026	0.245108	0.966874
160	N	0.248204	0.271962	0.96891
161	C	0.249193	0.271038	0.716022
162	N	0.276014	0.244183	0.713987
163	C	0.289624	0.230517	0.674283
164	H	0.284197	0.235909	0.936034
165	C	0.275087	0.033944	0.966868
166	N	0.248232	0.480272	0.968913
167	C	0.249131	0.482201	0.716029
168	N	0.275988	0.035875	0.713983
169	C	0.289666	0.06314	0.674272
170	H	0.284295	0.052308	0.936028
171	C	0.486236	0.245111	0.966868
172	N	0.484308	0.244207	0.713983
173	C	0.457041	0.230554	0.674272
174	H	0.467869	0.235912	0.936028
175	H	0.274957	0.889518	0.008307
176	C	0.401518	0.702784	0.008097
177	C	0.373284	0.64692	0.008077
178	C	0.317419	0.618664	0.008093
179	C	0.28979	0.6469	0.008107
180	C	0.317397	0.702764	0.008109
181	C	0.373261	0.730392	0.008114
182	H	0.249263	0.626628	0.007923
183	H	0.393518	0.77092	0.007933
184	H	0.393555	0.626663	0.007893
185	C	0.275028	0.745111	0.300207
186	N	0.248206	0.771964	0.302243
187	C	0.249194	0.771039	0.049356
188	N	0.276014	0.744182	0.04732
189	C	0.289626	0.730518	0.007615
190	H	0.284198	0.735909	0.269369
191	C	0.275087	0.533942	0.300203
192	N	0.248231	0.980271	0.302249
193	C	0.249133	0.982203	0.049363
194	N	0.275988	0.535875	0.047318
195	C	0.289666	0.563139	0.007605
196	H	0.284297	0.55231	0.269362
197	C	0.486235	0.745111	0.300202
198	N	0.484309	0.744206	0.047317
199	C	0.457042	0.730554	0.007605
200	H	0.46787	0.735913	0.269363
201	H	0.274957	0.889518	0.341641
202	C	0.401518	0.702784	0.341431
203	C	0.373284	0.64692	0.341411
204	C	0.317419	0.618664	0.341428
205	C	0.28979	0.6469	0.341441
206	C	0.317397	0.702764	0.341441
207	C	0.373261	0.730392	0.341448
208	H	0.249263	0.626628	0.341258
209	H	0.393518	0.77092	0.341269
210	H	0.393555	0.626663	0.341228
211	C	0.275028	0.745111	0.633539
212	N	0.248206	0.771964	0.635574
213	C	0.249194	0.771039	0.38269
214	N	0.276014	0.744182	0.380654
215	C	0.289626	0.730518	0.340947
216	H	0.284198	0.735909	0.602702
217	C	0.275087	0.533942	0.633535
218	N	0.248231	0.980271	0.635581
219	C	0.249133	0.982203	0.382697
220	N	0.275988	0.535875	0.380651
221	C	0.289666	0.563139	0.34094
222	H	0.284297	0.55231	0.602695
223	C	0.486235	0.745111	0.633535
224	N	0.484309	0.744206	0.380651
225	C	0.457042	0.730554	0.34094
226	H	0.46787	0.735913	0.602695
227	H	0.274957	0.889518	0.674974
228	C	0.401518	0.702784	0.674764
229	C	0.373284	0.64692	0.674743
230	C	0.317419	0.618664	0.67476
231	C	0.28979	0.6469	0.674774
232	C	0.317397	0.702764	0.674777
233	C	0.373261	0.730392	0.67478
234	H	0.249263	0.626628	0.674591
235	H	0.393518	0.77092	0.674601
236	H	0.393555	0.626663	0.67456
237	C	0.275028	0.745111	0.966874
238	N	0.248206	0.771964	0.96891
239	C	0.249194	0.771039	0.716022
240	N	0.276014	0.744182	0.713987
241	C	0.289626	0.730518	0.674283
242	H	0.284198	0.735909	0.936034
243	C	0.275087	0.533942	0.966868
244	N	0.248231	0.980271	0.968913
245	C	0.249133	0.982203	0.716029
246	N	0.275988	0.535875	0.713983
247	C	0.289666	0.563139	0.674272
248	H	0.284297	0.55231	0.936028
249	C	0.486235	0.745111	0.966868
250	N	0.484309	0.744206	0.713983
251	C	0.457042	0.730554	0.674272
252	H	0.46787	0.735913	0.936028
253	C	0.622704	0.313362	0.008133
254	C	0.650937	0.369226	0.008153
255	C	0.7068	0.39748	0.008141
256	C	0.734429	0.369247	0.008132
257	C	0.706822	0.313383	0.008121
258	C	0.650957	0.285754	0.008114
259	H	0.774958	0.389519	0.008307
260	H	0.630704	0.245227	0.008291
261	H	0.630666	0.389482	0.008335
262	C	0.901517	0.202783	0.008097
263	C	0.873283	0.146919	0.008077
264	C	0.81742	0.118664	0.008093
265	C	0.789791	0.146898	0.008107
266	C	0.817398	0.202763	0.008109
267	C	0.87326	0.230392	0.008114
268	H	0.749263	0.126626	0.007923
269	H	0.893516	0.270919	0.007933
270	H	0.893554	0.126663	0.007893
271	C	0.775027	0.245108	0.300207
272	N	0.748204	0.271962	0.302243
273	C	0.734595	0.285628	0.008615
274	C	0.749193	0.271038	0.049356
275	N	0.776016	0.244183	0.04732
276	C	0.789625	0.230517	0.007615
277	H	0.784198	0.235909	0.269369
278	H	0.740022	0.280236	0.080194
279	C	0.775087	0.033944	0.300203
280	N	0.748234	0.480272	0.302249
281	C	0.734552	0.453004	0.008627
282	C	0.749133	0.482201	0.049363
283	N	0.775988	0.035875	0.047318
284	C	0.789668	0.06314	0.007605
285	H	0.784296	0.052308	0.269362
286	H	0.739924	0.463838	0.080204
287	C	0.986234	0.245111	0.300202
288	N	0.53991	0.271939	0.302245
289	C	0.567178	0.285591	0.008621
290	C	0.537983	0.271034	0.049359
291	N	0.98431	0.244207	0.047317
292	C	0.957042	0.230554	0.007605
293	H	0.967868	0.235912	0.269363
294	H	0.556349	0.280233	0.080198
295	C	0.622704	0.313362	0.341465
296	C	0.650937	0.369226	0.341485
297	C	0.7068	0.39748	0.341475
298	C	0.734429	0.369247	0.341465
299	C	0.706822	0.313383	0.341455
300	C	0.650957	0.285754	0.341448
301	H	0.774958	0.389519	0.341641
302	H	0.630704	0.245227	0.341624
303	H	0.630666	0.389482	0.341668
304	C	0.901517	0.202783	0.341431
305	C	0.873283	0.146919	0.341411
306	C	0.81742	0.118664	0.341428
307	C	0.789791	0.146898	0.341441
308	C	0.817398	0.202763	0.341441
309	C	0.87326	0.230392	0.341448
310	H	0.749263	0.126626	0.341258
311	H	0.893516	0.270919	0.341269
312	H	0.893554	0.126663	0.341228
313	C	0.775027	0.245108	0.633539
314	N	0.748204	0.271962	0.635574
315	C	0.734595	0.285628	0.341949
316	C	0.749193	0.271038	0.38269
317	N	0.776016	0.244183	0.380654
318	C	0.789625	0.230517	0.340947
319	H	0.784198	0.235909	0.602702
320	H	0.740022	0.280236	0.413526
321	C	0.775087	0.033944	0.633535
322	N	0.748234	0.480272	0.635581
323	C	0.734552	0.453004	0.341959
324	C	0.749133	0.482201	0.382697
325	N	0.775988	0.035875	0.380651
326	C	0.789668	0.06314	0.34094
327	H	0.784296	0.052308	0.602695
328	H	0.739924	0.463838	0.413537
329	C	0.986234	0.245111	0.633535
330	N	0.53991	0.271939	0.635578
331	C	0.567178	0.285591	0.341953
332	C	0.537983	0.271034	0.382693
333	N	0.98431	0.244207	0.380651
334	C	0.957042	0.230554	0.34094
335	H	0.967868	0.235912	0.602695
336	H	0.556349	0.280233	0.413533
337	C	0.622704	0.313362	0.674797
338	C	0.650937	0.369226	0.674818
339	C	0.7068	0.39748	0.674808
340	C	0.734429	0.369247	0.674797
341	C	0.706822	0.313383	0.674787
342	C	0.650957	0.285754	0.67478
343	H	0.774958	0.389519	0.674974
344	H	0.630704	0.245227	0.674957
345	H	0.630666	0.389482	0.675001
346	C	0.901517	0.202783	0.674764
347	C	0.873283	0.146919	0.674743
348	C	0.81742	0.118664	0.67476
349	C	0.789791	0.146898	0.674774
350	C	0.817398	0.202763	0.674777
351	C	0.87326	0.230392	0.67478
352	H	0.749263	0.126626	0.674591
353	H	0.893516	0.270919	0.674601
354	H	0.893554	0.126663	0.67456
355	C	0.775027	0.245108	0.966874
356	N	0.748204	0.271962	0.96891
357	C	0.734595	0.285628	0.675282
358	C	0.749193	0.271038	0.716022
359	N	0.776016	0.244183	0.713987
360	C	0.789625	0.230517	0.674283
361	H	0.784198	0.235909	0.936034
362	H	0.740022	0.280236	0.746859
363	C	0.775087	0.033944	0.966868
364	N	0.748234	0.480272	0.968913
365	C	0.734552	0.453004	0.675292
366	C	0.749133	0.482201	0.716029
367	N	0.775988	0.035875	0.713983
368	C	0.789668	0.06314	0.674272
369	H	0.784296	0.052308	0.936028
370	H	0.739924	0.463838	0.746869
371	C	0.986234	0.245111	0.966868
372	N	0.53991	0.271939	0.96891
373	C	0.567178	0.285591	0.675289
374	C	0.537983	0.271034	0.716026
375	N	0.98431	0.244207	0.713983
376	C	0.957042	0.230554	0.674272
377	H	0.967868	0.235912	0.936028
378	H	0.556349	0.280233	0.746866
379	C	0.622703	0.813362	0.008133
380	C	0.650936	0.869226	0.008153
381	C	0.706801	0.897482	0.008141
382	C	0.734432	0.86925	0.008132
383	C	0.706824	0.813382	0.008121
384	C	0.650959	0.785754	0.008114
385	H	0.774957	0.889518	0.008307
386	H	0.630704	0.745229	0.008291
387	H	0.630665	0.889482	0.008335
388	C	0.901517	0.702784	0.008097
389	C	0.873283	0.64692	0.008077
390	C	0.81742	0.618664	0.008093
391	C	0.789792	0.6469	0.008107
392	C	0.817399	0.702764	0.008109
393	C	0.873263	0.730392	0.008114
394	H	0.749263	0.626628	0.007923
395	H	0.893517	0.77092	0.007933
396	H	0.893554	0.626663	0.007893
397	C	0.775029	0.745111	0.300207
398	N	0.748205	0.771964	0.302243
399	C	0.734595	0.785628	0.008615
400	C	0.749194	0.771039	0.049356
401	N	0.776016	0.744182	0.04732
402	C	0.789626	0.730518	0.007615
403	H	0.784198	0.735909	0.269369
404	H	0.740022	0.780236	0.080194
405	C	0.77509	0.533942	0.300203
406	N	0.748232	0.980271	0.302249
407	C	0.734554	0.953006	0.008627
408	C	0.749133	0.982203	0.049363
409	N	0.775988	0.535875	0.047318
410	C	0.789668	0.563139	0.007605
411	H	0.784297	0.55231	0.269362
412	H	0.739926	0.96384	0.080204
413	C	0.986237	0.745111	0.300202
414	N	0.539911	0.77194	0.302245
415	C	0.567179	0.785592	0.008621
416	C	0.537985	0.771035	0.049359
417	N	0.98431	0.744206	0.047317
418	C	0.957042	0.730554	0.007605
419	H	0.967872	0.735913	0.269363
420	H	0.55635	0.780232	0.080198
421	C	0.622703	0.813362	0.341465
422	C	0.650936	0.869226	0.341485
423	C	0.706801	0.897482	0.341475
424	C	0.734432	0.86925	0.341465
425	C	0.706824	0.813382	0.341455
426	C	0.650959	0.785754	0.341448
427	H	0.774957	0.889518	0.341641
428	H	0.630704	0.745229	0.341624
429	H	0.630665	0.889482	0.341668
430	C	0.901517	0.702784	0.341431
431	C	0.873283	0.64692	0.341411
432	C	0.81742	0.618664	0.341428
433	C	0.789792	0.6469	0.341441
434	C	0.817399	0.702764	0.341441
435	C	0.873263	0.730392	0.341448
436	H	0.749263	0.626628	0.341258
437	H	0.893517	0.77092	0.341269
438	H	0.893554	0.626663	0.341228
439	C	0.775029	0.745111	0.633539
440	N	0.748205	0.771964	0.635574
441	C	0.734595	0.785628	0.341949
442	C	0.749194	0.771039	0.38269
443	N	0.776016	0.744182	0.380654
444	C	0.789626	0.730518	0.340947
445	H	0.784198	0.735909	0.602702
446	H	0.740022	0.780236	0.413526
447	C	0.77509	0.533942	0.633535
448	N	0.748232	0.980271	0.635581
449	C	0.734554	0.953006	0.341959
450	C	0.749133	0.982203	0.382697
451	N	0.775988	0.535875	0.380651
452	C	0.789668	0.563139	0.34094
453	H	0.784297	0.55231	0.602695
454	H	0.739926	0.96384	0.413537
455	C	0.986237	0.745111	0.633535
456	N	0.539911	0.77194	0.635578
457	C	0.567179	0.785592	0.341953
458	C	0.537985	0.771035	0.382693
459	N	0.98431	0.744206	0.380651
460	C	0.957042	0.730554	0.34094
461	H	0.967872	0.735913	0.602695
462	H	0.55635	0.780232	0.413533
463	C	0.622703	0.813362	0.674797
464	C	0.650936	0.869226	0.674818
465	C	0.706801	0.897482	0.674808
466	C	0.734432	0.86925	0.674797
467	C	0.706824	0.813382	0.674787
468	C	0.650959	0.785754	0.67478
469	H	0.774957	0.889518	0.674974
470	H	0.630704	0.745229	0.674957
471	H	0.630665	0.889482	0.675001
472	C	0.901517	0.702784	0.674764
473	C	0.873283	0.64692	0.674743
474	C	0.81742	0.618664	0.67476
475	C	0.789792	0.6469	0.674774
476	C	0.817399	0.702764	0.674777
477	C	0.873263	0.730392	0.67478
478	H	0.749263	0.626628	0.674591
479	H	0.893517	0.77092	0.674601
480	H	0.893554	0.626663	0.67456
481	C	0.775029	0.745111	0.966874
482	N	0.748205	0.771964	0.96891
483	C	0.734595	0.785628	0.675282
484	C	0.749194	0.771039	0.716022
485	N	0.776016	0.744182	0.713987
486	C	0.789626	0.730518	0.674283
487	H	0.784198	0.735909	0.936034
488	H	0.740022	0.780236	0.746859
489	C	0.77509	0.533942	0.966868
490	N	0.748232	0.980271	0.968913
491	C	0.734554	0.953006	0.675292
492	C	0.749133	0.982203	0.716029
493	N	0.775988	0.535875	0.713983
494	C	0.789668	0.563139	0.674272
495	H	0.784297	0.55231	0.936028
496	H	0.739926	0.96384	0.746869
497	C	0.986237	0.745111	0.966868
498	N	0.539911	0.77194	0.96891
499	C	0.567179	0.785592	0.675289
500	C	0.537985	0.771035	0.716026
501	N	0.98431	0.744206	0.713983
502	C	0.957042	0.730554	0.674272
503	H	0.967872	0.735913	0.936028
504	H	0.55635	0.780232	0.746866
