data_C288H144N36O72_2018-02-15_10:39:07
#******************************************
#
# CIF file created by Zeo++
# Zeo++ is an open source package to
# analyze microporous materials
#
#*******************************************

_cell_length_a		34.3788   
_cell_length_b		34.3894   
_cell_length_c		29.5616   
_cell_angle_alpha		90   
_cell_angle_beta		90   
_cell_angle_gamma		119.993   

_symmetry_space_group_name_H-M		'P1'
_symmetry_Int_Tables_number		1
_symmetry_cell_setting		Monoclinic

loop_
_symmetry_equiv_pos_as_xyz
'+x,+y,+z'

loop_
_atom_site_label
_atom_site_type_symbol
_atom_site_fract_x
_atom_site_fract_y
_atom_site_fract_z
1	C	0.464262	0.197177	0.013706
2	C	0.392875	0.197508	0.007457
3	C	0.416824	0.174027	0.012391
4	H	0.399645	0.139736	0.014983
5	C	0.815969	0.199064	0.007447
6	C	0.175663	0.107217	0.039618
7	C	0.128361	0.08343	0.039465
8	H	0.192061	0.129898	0.06497
9	H	0.11186	0.089129	0.065187
10	C	0.319643	0.145338	0.042725
11	C	0.27235	0.122192	0.041995
12	H	0.335607	0.14179	0.070317
13	H	0.255393	0.101949	0.068864
14	C	0.906048	0.071976	0.039573
15	C	0.929793	0.048419	0.039416
16	H	0.88337	0.06572	0.064925
17	H	0.924067	0.026218	0.065137
18	C	0.868112	0.177949	0.042699
19	C	0.89121	0.153756	0.041968
20	H	0.871677	0.197451	0.070299
21	H	0.911439	0.157004	0.068841
22	C	0.668949	0.152915	0.037498
23	C	0.623681	0.143202	0.039251
24	C	0.564292	0.159575	0.013435
25	C	0.55692	0.17888	0.052836
26	C	0.51976	0.186022	0.054497
27	C	0.490096	0.175446	0.01753
28	H	0.516924	0.203119	0.081521
29	H	0.604554	0.126266	0.066723
30	N	0.588865	0.194995	0.088408
31	N	0.687751	0.140395	0.073352
32	O	0.571426	0.176279	0.125336
33	O	0.686551	0.158197	0.110072
34	O	0.667546	0.098524	0.078391
35	C	0.487644	0.244349	0.009371
36	H	0.522105	0.261341	0.010279
37	C	0.816305	0.270761	0.01374
38	C	0.769116	0.246977	0.009395
39	C	0.839458	0.246481	0.012396
40	H	0.873762	0.263589	0.014982
41	H	0.752118	0.26444	0.01031
42	C	0.742664	0.549104	0.013738
43	C	0.76647	0.525726	0.009396
44	C	0.81437	0.620464	0.007452
45	C	0.766937	0.596529	0.012394
46	H	0.749812	0.613702	0.014983
47	H	0.749008	0.491272	0.010313
48	C	0.941322	0.837604	0.039597
49	C	0.964847	0.884894	0.039442
50	H	0.947601	0.821202	0.06495
51	H	0.987047	0.901379	0.065165
52	C	0.835438	0.693688	0.042714
53	C	0.859595	0.740968	0.041983
54	H	0.815931	0.677737	0.07031
55	H	0.856318	0.757927	0.068855
56	O	0.606982	0.236809	0.093281
57	C	0.860553	0.519646	0.037517
58	C	0.870255	0.48409	0.039271
59	C	0.853878	0.408352	0.013446
60	C	0.834588	0.381683	0.052855
61	C	0.827459	0.337398	0.05452
62	C	0.838037	0.318316	0.017552
63	H	0.810373	0.317476	0.081551
64	H	0.887189	0.481894	0.066745
65	N	0.81847	0.397504	0.088432
66	N	0.873072	0.550958	0.07337
67	O	0.837206	0.398796	0.125353
68	O	0.855252	0.531958	0.110084
69	O	0.776648	0.3738	0.093318
70	O	0.914955	0.572613	0.078421
71	C	0.493718	0.344482	0.037502
72	C	0.529273	0.389734	0.039262
73	C	0.605032	0.449098	0.013443
74	C	0.631712	0.456468	0.052848
75	C	0.676009	0.493615	0.054515
76	C	0.695093	0.523275	0.017551
77	H	0.695941	0.496449	0.081542
78	H	0.531465	0.408852	0.06674
79	N	0.615887	0.424531	0.088419
80	N	0.462401	0.325686	0.073359
81	O	0.614595	0.441963	0.125346
82	O	0.481412	0.326871	0.110073
83	O	0.639601	0.406421	0.093296
84	O	0.440729	0.345896	0.078415
85	C	0.055655	0.028621	0.006083
86	C	0.032132	0.052659	0.006299
87	C	0.984601	0.030492	0.006059
88	H	0.050003	0.087042	0.006248
89	C	0.744608	0.199936	0.003799
90	C	0.768469	0.176291	0.003156
91	H	0.750943	0.142069	0.999804
92	C	0.103803	0.051893	0.338443
93	C	0.128202	0.044922	0.303572
94	C	0.175876	0.069369	0.304039
95	C	0.200313	0.100893	0.338344
96	C	0.248431	0.125665	0.338036
97	C	0.273402	0.153832	0.30128
98	C	0.321064	0.177774	0.302984
99	C	0.344865	0.17375	0.339988
100	H	0.338573	0.197868	0.276238
101	H	0.192929	0.063848	0.278776
102	N	0.250369	0.158453	0.263785
103	N	0.104646	0.014749	0.267859
104	O	0.25994	0.145652	0.227775
105	O	0.259275	0.198364	0.258854
106	O	0.113568	0.034455	0.230285
107	C	0.961332	0.055369	0.338395
108	C	0.96835	0.08675	0.303532
109	C	0.943946	0.110019	0.304005
110	C	0.912423	0.102966	0.338311
111	C	0.887701	0.126362	0.338004
112	C	0.859555	0.123219	0.301243
113	C	0.835661	0.146985	0.302948
114	C	0.839716	0.174807	0.339958
115	H	0.815572	0.144428	0.276201
116	H	0.949504	0.132603	0.278748
117	N	0.854899	0.095567	0.263742
118	N	0.998527	0.093342	0.267822
119	O	0.867738	0.117938	0.227737
120	O	0.029777	0.133468	0.265841
121	O	0.814958	0.064608	0.258801
122	O	0.978818	0.082589	0.230245
123	C	0.69682	0.178751	0.001049
124	C	0.605844	0.160071	0.006539
125	C	0.633377	0.183622	0.302612
126	C	0.67789	0.192538	0.299785
127	H	0.622547	0.19779	0.278908
128	H	0.697653	0.212708	0.274043
129	C	0.496572	0.154745	0.312681
130	C	0.532904	0.146733	0.310857
131	H	0.477331	0.148982	0.284317
132	H	0.538023	0.134121	0.281484
133	C	0.055655	0.028621	0.339417
134	C	0.032132	0.052659	0.339633
135	C	0.984601	0.030492	0.339393
136	H	0.050003	0.087042	0.339583
137	C	0.464262	0.197177	0.347038
138	C	0.392875	0.197508	0.34079
139	C	0.416824	0.174027	0.345722
140	H	0.399645	0.139736	0.348317
141	C	0.744608	0.199936	0.337133
142	C	0.768469	0.176291	0.33649
143	C	0.815969	0.199064	0.34078
144	H	0.750943	0.142069	0.333138
145	C	0.103803	0.051893	0.671777
146	C	0.128202	0.044922	0.636904
147	C	0.175876	0.069369	0.637374
148	C	0.200313	0.100893	0.671679
149	C	0.175663	0.107217	0.37295
150	C	0.128361	0.08343	0.372798
151	H	0.192061	0.129898	0.398304
152	H	0.11186	0.089129	0.398521
153	C	0.248431	0.125665	0.671368
154	C	0.273402	0.153832	0.634614
155	C	0.321064	0.177774	0.636319
156	C	0.344865	0.17375	0.67332
157	C	0.319643	0.145338	0.376059
158	C	0.27235	0.122192	0.375328
159	H	0.338573	0.197868	0.609571
160	H	0.335607	0.14179	0.403649
161	H	0.255393	0.101949	0.402198
162	H	0.192929	0.063848	0.612109
163	N	0.250369	0.158453	0.597119
164	N	0.104646	0.014749	0.601192
165	O	0.25994	0.145652	0.56111
166	O	0.259275	0.198364	0.592187
167	O	0.113568	0.034455	0.56362
168	C	0.961332	0.055369	0.67173
169	C	0.96835	0.08675	0.636864
170	C	0.943946	0.110019	0.637337
171	C	0.912423	0.102966	0.671642
172	C	0.906048	0.071976	0.372906
173	C	0.929793	0.048419	0.372751
174	H	0.88337	0.06572	0.39826
175	H	0.924067	0.026218	0.39847
176	C	0.887701	0.126362	0.671337
177	C	0.859555	0.123219	0.634577
178	C	0.835661	0.146985	0.636282
179	C	0.839716	0.174807	0.673293
180	C	0.868112	0.177949	0.376032
181	C	0.89121	0.153756	0.375301
182	H	0.815572	0.144428	0.609534
183	H	0.871677	0.197451	0.403632
184	H	0.911439	0.157004	0.402174
185	H	0.949504	0.132603	0.612081
186	N	0.854899	0.095567	0.597075
187	N	0.998527	0.093342	0.601155
188	O	0.867738	0.117938	0.561069
189	O	0.029777	0.133468	0.599173
190	O	0.814958	0.064608	0.592133
191	O	0.978818	0.082589	0.563579
192	C	0.69682	0.178751	0.334381
193	C	0.668949	0.152915	0.370833
194	C	0.623681	0.143202	0.372585
195	C	0.605844	0.160071	0.339873
196	C	0.633377	0.183622	0.635943
197	C	0.67789	0.192538	0.633119
198	H	0.622547	0.19779	0.61224
199	H	0.697653	0.212708	0.607376
200	C	0.564292	0.159575	0.346768
201	C	0.55692	0.17888	0.38617
202	C	0.51976	0.186022	0.387831
203	C	0.490096	0.175446	0.350864
204	C	0.496572	0.154745	0.646014
205	C	0.532904	0.146733	0.644191
206	H	0.516924	0.203119	0.414853
207	H	0.477331	0.148982	0.617649
208	H	0.538023	0.134121	0.614818
209	H	0.604554	0.126266	0.400056
210	N	0.588865	0.194995	0.421743
211	N	0.687751	0.140395	0.406687
212	O	0.571426	0.176279	0.45867
213	O	0.686551	0.158197	0.443406
214	O	0.667546	0.098524	0.411723
215	C	0.055655	0.028621	0.672751
216	C	0.032132	0.052659	0.672968
217	C	0.984601	0.030492	0.672724
218	H	0.050003	0.087042	0.672914
219	C	0.464262	0.197177	0.680373
220	C	0.392875	0.197508	0.674125
221	C	0.416824	0.174027	0.679057
222	H	0.399645	0.139736	0.681648
223	C	0.744608	0.199936	0.670465
224	C	0.768469	0.176291	0.669822
225	C	0.815969	0.199064	0.674115
226	H	0.750943	0.142069	0.666473
227	C	0.103803	0.051893	0.005108
228	C	0.128202	0.044922	0.970239
229	C	0.175876	0.069369	0.970706
230	C	0.200313	0.100893	0.00501
231	C	0.175663	0.107217	0.706285
232	C	0.128361	0.08343	0.706133
233	H	0.192061	0.129898	0.731635
234	H	0.11186	0.089129	0.731855
235	C	0.248431	0.125665	0.004702
236	C	0.273402	0.153832	0.967945
237	C	0.321064	0.177774	0.96965
238	C	0.344865	0.17375	0.006654
239	C	0.319643	0.145338	0.70939
240	C	0.27235	0.122192	0.708663
241	H	0.338573	0.197868	0.942903
242	H	0.335607	0.14179	0.736983
243	H	0.255393	0.101949	0.735529
244	H	0.192929	0.063848	0.945443
245	N	0.250369	0.158453	0.930451
246	N	0.104646	0.014749	0.934527
247	O	0.25994	0.145652	0.894441
248	O	0.259275	0.198364	0.925519
249	O	0.113568	0.034455	0.896951
250	C	0.961332	0.055369	0.005061
251	C	0.96835	0.08675	0.970198
252	C	0.943946	0.110019	0.970672
253	C	0.912423	0.102966	0.004976
254	C	0.906048	0.071976	0.706241
255	C	0.929793	0.048419	0.706082
256	H	0.88337	0.06572	0.731591
257	H	0.924067	0.026218	0.731804
258	C	0.887701	0.126362	0.004672
259	C	0.859555	0.123219	0.967908
260	C	0.835661	0.146985	0.969613
261	C	0.839716	0.174807	0.006624
262	C	0.868112	0.177949	0.709366
263	C	0.89121	0.153756	0.708636
264	H	0.815572	0.144428	0.942869
265	H	0.871677	0.197451	0.736966
266	H	0.911439	0.157004	0.735509
267	H	0.949504	0.132603	0.945416
268	N	0.854899	0.095567	0.93041
269	N	0.998527	0.093342	0.93449
270	O	0.867738	0.117938	0.894404
271	O	0.029777	0.133468	0.932507
272	O	0.814958	0.064608	0.925468
273	O	0.978818	0.082589	0.896911
274	C	0.69682	0.178751	0.667714
275	C	0.668949	0.152915	0.704164
276	C	0.623681	0.143202	0.705916
277	C	0.605844	0.160071	0.673208
278	C	0.633377	0.183622	0.969278
279	C	0.67789	0.192538	0.966453
280	H	0.622547	0.19779	0.945575
281	H	0.697653	0.212708	0.940711
282	C	0.564292	0.159575	0.680102
283	C	0.55692	0.17888	0.719501
284	C	0.51976	0.186022	0.721162
285	C	0.490096	0.175446	0.684195
286	C	0.496572	0.154745	0.979349
287	C	0.532904	0.146733	0.977525
288	H	0.516924	0.203119	0.748187
289	H	0.477331	0.148982	0.950984
290	H	0.538023	0.134121	0.948149
291	H	0.604554	0.126266	0.733391
292	N	0.588865	0.194995	0.755074
293	N	0.687751	0.140395	0.740018
294	O	0.571426	0.176279	0.792001
295	O	0.686551	0.158197	0.776738
296	O	0.667546	0.098524	0.745058
297	C	0.960562	0.982943	0.006289
298	C	0.982742	0.957594	0.006069
299	C	0.030305	0.981103	0.006316
300	H	0.926167	0.96643	0.006228
301	H	0.046829	0.963238	0.006255
302	C	0.46509	0.26885	0.003786
303	C	0.417579	0.244991	0.00316
304	H	0.400866	0.262511	0.999818
305	C	0.813524	0.548265	0.003786
306	C	0.83716	0.59576	0.00316
307	H	0.871395	0.612464	0.999811
308	O	0.113589	0.98354	0.265868
309	C	0.957871	0.909457	0.338419
310	C	0.926498	0.885078	0.303551
311	C	0.90326	0.837416	0.304021
312	C	0.91034	0.812973	0.338328
313	C	0.886983	0.764867	0.338019
314	C	0.890163	0.73989	0.30126
315	C	0.866432	0.692241	0.302965
316	C	0.838614	0.66846	0.339975
317	H	0.869012	0.674732	0.276217
318	H	0.88068	0.82038	0.27876
319	N	0.917811	0.762903	0.263759
320	N	0.919879	0.908635	0.267839
321	O	0.895432	0.753347	0.227754
322	O	0.879732	0.899724	0.265849
323	O	0.948809	0.753972	0.258817
324	O	0.930658	0.899704	0.230264
325	C	0.834731	0.52168	0.001052
326	C	0.85338	0.449394	0.006556
327	C	0.829831	0.453386	0.302621
328	C	0.820927	0.488978	0.299785
329	H	0.815661	0.428392	0.278916
330	H	0.800758	0.488579	0.274038
331	C	0.858719	0.345483	0.312693
332	C	0.866715	0.389808	0.310865
333	H	0.864479	0.332006	0.284327
334	H	0.87932	0.407529	0.281487
335	C	0.491678	0.316623	0.001039
336	C	0.563979	0.407566	0.006549
337	C	0.559988	0.380041	0.302609
338	C	0.524395	0.33555	0.299775
339	H	0.584988	0.390869	0.2789
340	H	0.524802	0.315796	0.274025
341	C	0.667916	0.516799	0.312698
342	C	0.623574	0.480477	0.310868
343	H	0.681393	0.536037	0.284336
344	H	0.605847	0.475367	0.281493
345	C	0.960562	0.982943	0.33962
346	C	0.982742	0.957594	0.339403
347	C	0.030305	0.981103	0.33965
348	H	0.926167	0.96643	0.339562
349	H	0.046829	0.963238	0.339589
350	C	0.487644	0.244349	0.342705
351	C	0.46509	0.26885	0.33712
352	C	0.417579	0.244991	0.336493
353	H	0.400866	0.262511	0.333153
354	H	0.522105	0.261341	0.343611
355	C	0.816305	0.270761	0.347072
356	C	0.769116	0.246977	0.342729
357	C	0.839458	0.246481	0.345729
358	H	0.873762	0.263589	0.348317
359	H	0.752118	0.26444	0.343642
360	C	0.742664	0.549104	0.347072
361	C	0.76647	0.525726	0.342729
362	C	0.813524	0.548265	0.337118
363	C	0.83716	0.59576	0.336493
364	C	0.81437	0.620464	0.340787
365	C	0.766937	0.596529	0.345729
366	H	0.871395	0.612464	0.333143
367	H	0.749812	0.613702	0.348317
368	H	0.749008	0.491272	0.343645
369	O	0.113589	0.98354	0.5992
370	C	0.957871	0.909457	0.671753
371	C	0.926498	0.885078	0.636884
372	C	0.90326	0.837416	0.637354
373	C	0.91034	0.812973	0.671659
374	C	0.941322	0.837604	0.37293
375	C	0.964847	0.884894	0.372774
376	H	0.947601	0.821202	0.398284
377	H	0.987047	0.901379	0.3985
378	C	0.886983	0.764867	0.671351
379	C	0.890163	0.73989	0.634594
380	C	0.866432	0.692241	0.636299
381	C	0.838614	0.66846	0.673306
382	C	0.835438	0.693688	0.376045
383	C	0.859595	0.740968	0.375315
384	H	0.869012	0.674732	0.609551
385	H	0.815931	0.677737	0.403645
386	H	0.856318	0.757927	0.402187
387	H	0.88068	0.82038	0.612092
388	N	0.917811	0.762903	0.597092
389	N	0.919879	0.908635	0.601172
390	O	0.895432	0.753347	0.561086
391	O	0.879732	0.899724	0.599183
392	O	0.948809	0.753972	0.59215
393	O	0.930658	0.899704	0.563596
394	O	0.606982	0.236809	0.426614
395	C	0.834731	0.52168	0.334388
396	C	0.860553	0.519646	0.370849
397	C	0.870255	0.48409	0.372605
398	C	0.85338	0.449394	0.33989
399	C	0.829831	0.453386	0.635954
400	C	0.820927	0.488978	0.633119
401	H	0.815661	0.428392	0.612247
402	H	0.800758	0.488579	0.607373
403	C	0.853878	0.408352	0.346778
404	C	0.834588	0.381683	0.386187
405	C	0.827459	0.337398	0.387855
406	C	0.838037	0.318316	0.350884
407	C	0.858719	0.345483	0.646028
408	C	0.866715	0.389808	0.644197
409	H	0.810373	0.317476	0.414883
410	H	0.864479	0.332006	0.61766
411	H	0.87932	0.407529	0.614818
412	H	0.887189	0.481894	0.400077
413	N	0.81847	0.397504	0.421764
414	N	0.873072	0.550958	0.406703
415	O	0.837206	0.398796	0.458686
416	O	0.855252	0.531958	0.443417
417	O	0.776648	0.3738	0.426652
418	O	0.914955	0.572613	0.411754
419	C	0.491678	0.316623	0.334374
420	C	0.493718	0.344482	0.370836
421	C	0.529273	0.389734	0.372595
422	C	0.563979	0.407566	0.33988
423	C	0.559988	0.380041	0.635943
424	C	0.524395	0.33555	0.633109
425	H	0.584988	0.390869	0.612234
426	H	0.524802	0.315796	0.607359
427	C	0.605032	0.449098	0.346778
428	C	0.631712	0.456468	0.38618
429	C	0.676009	0.493615	0.387848
430	C	0.695093	0.523275	0.350884
431	C	0.667916	0.516799	0.646031
432	C	0.623574	0.480477	0.644201
433	H	0.695941	0.496449	0.414876
434	H	0.681393	0.536037	0.61767
435	H	0.605847	0.475367	0.614825
436	H	0.531465	0.408852	0.400073
437	N	0.615887	0.424531	0.421753
438	N	0.462401	0.325686	0.406693
439	O	0.614595	0.441963	0.45868
440	O	0.481412	0.326871	0.443406
441	O	0.639601	0.406421	0.426631
442	O	0.440729	0.345896	0.411747
443	C	0.960562	0.982943	0.672954
444	C	0.982742	0.957594	0.672738
445	C	0.030305	0.981103	0.672981
446	H	0.926167	0.96643	0.672893
447	H	0.046829	0.963238	0.672924
448	C	0.487644	0.244349	0.676036
449	C	0.46509	0.26885	0.670454
450	C	0.417579	0.244991	0.669825
451	H	0.400866	0.262511	0.666487
452	H	0.522105	0.261341	0.676946
453	C	0.816305	0.270761	0.680407
454	C	0.769116	0.246977	0.676063
455	C	0.839458	0.246481	0.679064
456	H	0.873762	0.263589	0.681648
457	H	0.752118	0.26444	0.676976
458	C	0.742664	0.549104	0.680403
459	C	0.76647	0.525726	0.676063
460	C	0.813524	0.548265	0.670451
461	C	0.83716	0.59576	0.669825
462	C	0.81437	0.620464	0.674118
463	C	0.766937	0.596529	0.67906
464	H	0.871395	0.612464	0.666476
465	H	0.749812	0.613702	0.681648
466	H	0.749008	0.491272	0.67698
467	O	0.113589	0.98354	0.932534
468	C	0.957871	0.909457	0.005085
469	C	0.926498	0.885078	0.970218
470	C	0.90326	0.837416	0.970689
471	C	0.91034	0.812973	0.004993
472	C	0.941322	0.837604	0.706264
473	C	0.964847	0.884894	0.706109
474	H	0.947601	0.821202	0.731615
475	H	0.987047	0.901379	0.731831
476	C	0.886983	0.764867	0.004686
477	C	0.890163	0.73989	0.967925
478	C	0.866432	0.692241	0.96963
479	C	0.838614	0.66846	0.006641
480	C	0.835438	0.693688	0.70938
481	C	0.859595	0.740968	0.708649
482	H	0.869012	0.674732	0.942882
483	H	0.815931	0.677737	0.736977
484	H	0.856318	0.757927	0.735522
485	H	0.88068	0.82038	0.945426
486	N	0.917811	0.762903	0.930427
487	N	0.919879	0.908635	0.934507
488	O	0.895432	0.753347	0.894421
489	O	0.879732	0.899724	0.932514
490	O	0.948809	0.753972	0.925485
491	O	0.930658	0.899704	0.896931
492	O	0.606982	0.236809	0.759946
493	C	0.834731	0.52168	0.667721
494	C	0.860553	0.519646	0.704184
495	C	0.870255	0.48409	0.705936
496	C	0.85338	0.449394	0.673222
497	C	0.829831	0.453386	0.969288
498	C	0.820927	0.488978	0.966453
499	H	0.815661	0.428392	0.945582
500	H	0.800758	0.488579	0.940704
501	C	0.853878	0.408352	0.680112
502	C	0.834588	0.381683	0.719522
503	C	0.827459	0.337398	0.721186
504	C	0.838037	0.318316	0.684219
505	C	0.858719	0.345483	0.979359
506	C	0.866715	0.389808	0.977532
507	H	0.810373	0.317476	0.748218
508	H	0.864479	0.332006	0.950994
509	H	0.87932	0.407529	0.948153
510	H	0.887189	0.481894	0.733411
511	N	0.81847	0.397504	0.755098
512	N	0.873072	0.550958	0.740035
513	O	0.837206	0.398796	0.792021
514	O	0.855252	0.531958	0.776751
515	O	0.776648	0.3738	0.759983
516	O	0.914955	0.572613	0.745088
517	C	0.491678	0.316623	0.667708
518	C	0.493718	0.344482	0.704167
519	C	0.529273	0.389734	0.70593
520	C	0.563979	0.407566	0.673215
521	C	0.559988	0.380041	0.969275
522	C	0.524395	0.33555	0.96644
523	H	0.584988	0.390869	0.945568
524	H	0.524802	0.315796	0.94069
525	C	0.605032	0.449098	0.680109
526	C	0.631712	0.456468	0.719515
527	C	0.676009	0.493615	0.721182
528	C	0.695093	0.523275	0.684216
529	C	0.667916	0.516799	0.979365
530	C	0.623574	0.480477	0.977535
531	H	0.695941	0.496449	0.748207
532	H	0.681393	0.536037	0.951001
533	H	0.605847	0.475367	0.948159
534	H	0.531465	0.408852	0.733408
535	N	0.615887	0.424531	0.755085
536	N	0.462401	0.325686	0.740024
537	O	0.614595	0.441963	0.792011
538	O	0.481412	0.326871	0.776738
539	O	0.639601	0.406421	0.759963
540	O	0.440729	0.345896	0.745082
