data_C288H180N108_2018-02-15_10:36:39
#******************************************
#
# CIF file created by Zeo++
# Zeo++ is an open source package to
# analyze microporous materials
#
#*******************************************

_cell_length_a		29.0834   
_cell_length_b		29.0834   
_cell_length_c		29.408   
_cell_angle_alpha		90   
_cell_angle_beta		90   
_cell_angle_gamma		120   

_symmetry_space_group_name_H-M		'P1'
_symmetry_Int_Tables_number		1
_symmetry_cell_setting		Monoclinic

loop_
_symmetry_equiv_pos_as_xyz
'+x,+y,+z'

loop_
_atom_site_label
_atom_site_type_symbol
_atom_site_fract_x
_atom_site_fract_y
_atom_site_fract_z
1	N	0.154876	0.370283	0.01086
2	C	0.127499	0.316265	0.010713
3	N	0.154876	0.289625	0.010863
4	C	0.042512	0.273772	0.303877
5	C	0.071725	0.288379	0.011433
6	C	0.043799	0.274415	0.053069
7	H	0.061684	0.283359	0.273171
8	H	0.064925	0.284978	0.08285
9	N	0.154876	0.370283	0.344195
10	C	0.127499	0.316265	0.344049
11	N	0.154876	0.289625	0.344198
12	C	0.042512	0.273772	0.63721
13	C	0.071725	0.288379	0.344766
14	C	0.043799	0.274415	0.386401
15	H	0.061684	0.283359	0.606504
16	H	0.064925	0.284978	0.416182
17	N	0.154876	0.370283	0.677529
18	C	0.127499	0.316265	0.677379
19	N	0.154876	0.289625	0.677529
20	C	0.042512	0.273772	0.970544
21	C	0.071725	0.288379	0.6781
22	C	0.043799	0.274415	0.719735
23	H	0.061684	0.283359	0.939838
24	H	0.064925	0.284978	0.749516
25	N	0.154875	0.870282	0.01086
26	C	0.127499	0.816266	0.010713
27	N	0.154876	0.789625	0.010863
28	C	0.042511	0.773772	0.303877
29	C	0.071725	0.788378	0.011433
30	C	0.043799	0.774415	0.053069
31	H	0.061683	0.783356	0.273171
32	H	0.064924	0.784976	0.08285
33	N	0.154875	0.870282	0.344195
34	C	0.127499	0.816266	0.344049
35	N	0.154876	0.789625	0.344198
36	C	0.042511	0.773772	0.63721
37	C	0.071725	0.788378	0.344766
38	C	0.043799	0.774415	0.386401
39	H	0.061683	0.783356	0.606504
40	H	0.064924	0.784976	0.416182
41	N	0.154875	0.870282	0.677529
42	C	0.127499	0.816266	0.677379
43	N	0.154876	0.789625	0.677529
44	C	0.042511	0.773772	0.970544
45	C	0.071725	0.788378	0.6781
46	C	0.043799	0.774415	0.719735
47	H	0.061683	0.783356	0.939838
48	H	0.064924	0.784976	0.749516
49	C	0.208895	0.397661	0.01071
50	C	0.208894	0.316265	0.010713
51	N	0.235534	0.370282	0.01086
52	C	0.251389	0.273772	0.303877
53	C	0.236781	0.288378	0.011433
54	C	0.250743	0.274414	0.053069
55	H	0.241803	0.283359	0.273171
56	H	0.240179	0.284976	0.082849
57	C	0.251389	0.482649	0.303875
58	C	0.236781	0.453432	0.01143
59	C	0.250743	0.481359	0.053067
60	H	0.241803	0.463477	0.273168
61	H	0.240181	0.460233	0.082847
62	C	0.208895	0.397661	0.344042
63	C	0.208894	0.316265	0.344045
64	N	0.235534	0.370282	0.344195
65	C	0.251389	0.273772	0.63721
66	C	0.236781	0.288378	0.344766
67	C	0.250743	0.274414	0.386401
68	H	0.241803	0.283359	0.606504
69	H	0.240179	0.284976	0.416182
70	C	0.251389	0.482649	0.637207
71	C	0.236781	0.453432	0.344763
72	C	0.250743	0.481359	0.386401
73	H	0.241803	0.463477	0.606501
74	H	0.240181	0.460233	0.416182
75	C	0.208895	0.397661	0.677376
76	C	0.208894	0.316265	0.677379
77	N	0.235534	0.370282	0.677526
78	C	0.251389	0.273772	0.970544
79	C	0.236781	0.288378	0.6781
80	C	0.250743	0.274414	0.719735
81	H	0.241803	0.283359	0.939838
82	H	0.240179	0.284976	0.749516
83	C	0.251389	0.482649	0.970541
84	C	0.236781	0.453432	0.678097
85	C	0.250743	0.481359	0.719735
86	H	0.241803	0.463477	0.939835
87	H	0.240181	0.460233	0.749516
88	C	0.208894	0.897661	0.01071
89	C	0.208894	0.816266	0.010713
90	N	0.235534	0.870282	0.01086
91	C	0.251388	0.773772	0.303877
92	C	0.236781	0.788378	0.011433
93	C	0.250743	0.774415	0.053069
94	H	0.241803	0.78336	0.273171
95	H	0.240179	0.784976	0.082849
96	C	0.251388	0.982649	0.303875
97	C	0.23678	0.953432	0.01143
98	C	0.250743	0.981359	0.053067
99	H	0.241802	0.963476	0.273168
100	H	0.240181	0.960233	0.082847
101	C	0.208894	0.897661	0.344042
102	C	0.208894	0.816266	0.344045
103	N	0.235534	0.870282	0.344195
104	C	0.251388	0.773772	0.63721
105	C	0.236781	0.788378	0.344766
106	C	0.250743	0.774415	0.386401
107	H	0.241803	0.78336	0.606504
108	H	0.240179	0.784976	0.416182
109	C	0.251388	0.982649	0.637207
110	C	0.23678	0.953432	0.344763
111	C	0.250743	0.981359	0.386401
112	H	0.241802	0.963476	0.606501
113	H	0.240181	0.960233	0.416182
114	C	0.208894	0.897661	0.677376
115	C	0.208894	0.816266	0.677379
116	N	0.235534	0.870282	0.677526
117	C	0.251388	0.773772	0.970544
118	C	0.236781	0.788378	0.6781
119	C	0.250743	0.774415	0.719735
120	H	0.241803	0.78336	0.939838
121	H	0.240179	0.784976	0.749516
122	C	0.251388	0.982649	0.970541
123	C	0.23678	0.953432	0.678097
124	C	0.250743	0.981359	0.719735
125	H	0.241802	0.963476	0.939835
126	H	0.240181	0.960233	0.749516
127	N	0.294661	0.149847	0.01171
128	C	0.279329	0.245832	0.304662
129	C	0.27892	0.246238	0.054647
130	C	0.293375	0.231783	0.012964
131	H	0.289345	0.235817	0.274345
132	N	0.291101	0.234057	0.095973
133	H	0.280891	0.244267	0.124085
134	C	0.279329	0.03853	0.304662
135	C	0.27892	0.037713	0.054646
136	C	0.293374	0.066624	0.012964
137	H	0.289344	0.058562	0.274344
138	N	0.291101	0.062074	0.095973
139	H	0.280891	0.041652	0.124085
140	N	0.294661	0.149847	0.345045
141	C	0.279329	0.245832	0.637996
142	C	0.27892	0.246238	0.387979
143	C	0.293375	0.231783	0.346296
144	H	0.289345	0.235817	0.607677
145	N	0.291101	0.234057	0.429308
146	H	0.280891	0.244267	0.457419
147	C	0.279329	0.03853	0.637996
148	C	0.27892	0.037713	0.387979
149	C	0.293374	0.066624	0.346296
150	H	0.289344	0.058562	0.607677
151	N	0.291101	0.062074	0.429308
152	H	0.280891	0.041652	0.457419
153	N	0.294661	0.149847	0.678376
154	C	0.279329	0.245832	0.97133
155	C	0.27892	0.246238	0.721313
156	C	0.293375	0.231783	0.67963
157	H	0.289345	0.235817	0.941011
158	N	0.291101	0.234057	0.762642
159	H	0.280891	0.244267	0.790753
160	C	0.279329	0.03853	0.97133
161	C	0.27892	0.037713	0.721313
162	C	0.293374	0.066624	0.67963
163	H	0.289344	0.058562	0.941011
164	N	0.291101	0.062074	0.762642
165	H	0.280891	0.041652	0.790753
166	N	0.294661	0.649847	0.01171
167	C	0.279329	0.745833	0.304662
168	C	0.27892	0.746238	0.054647
169	C	0.293375	0.731782	0.012964
170	H	0.289344	0.735816	0.274345
171	N	0.291101	0.734057	0.095973
172	H	0.280891	0.744268	0.124085
173	C	0.279327	0.538527	0.304662
174	C	0.27892	0.537713	0.054646
175	C	0.293373	0.566621	0.012964
176	H	0.289344	0.558562	0.274344
177	N	0.291099	0.562071	0.095973
178	H	0.280891	0.541652	0.124085
179	N	0.294661	0.649847	0.345045
180	C	0.279329	0.745833	0.637996
181	C	0.27892	0.746238	0.387979
182	C	0.293375	0.731782	0.346296
183	H	0.289344	0.735816	0.607677
184	N	0.291101	0.734057	0.429308
185	H	0.280891	0.744268	0.457419
186	C	0.279327	0.538527	0.637996
187	C	0.27892	0.537713	0.387979
188	C	0.293373	0.566621	0.346296
189	H	0.289344	0.558562	0.607677
190	N	0.291099	0.562071	0.429308
191	H	0.280891	0.541652	0.457419
192	N	0.294661	0.649847	0.678376
193	C	0.279329	0.745833	0.97133
194	C	0.27892	0.746238	0.721313
195	C	0.293375	0.731782	0.67963
196	H	0.289344	0.735816	0.941011
197	N	0.291101	0.734057	0.762642
198	H	0.280891	0.744268	0.790753
199	C	0.279327	0.538527	0.97133
200	C	0.27892	0.537713	0.721313
201	C	0.293373	0.566621	0.67963
202	H	0.289344	0.558562	0.941011
203	N	0.291099	0.562071	0.762642
204	H	0.280891	0.541652	0.790753
205	C	0.321296	0.122464	0.011404
206	N	0.375313	0.149846	0.01171
207	C	0.402696	0.203863	0.011403
208	N	0.375314	0.230498	0.011709
209	C	0.321297	0.203864	0.011403
210	H	0.310315	0.214846	0.098906
211	H	0.310313	0.100499	0.098906
212	C	0.486632	0.245832	0.304663
213	C	0.487444	0.246238	0.054647
214	C	0.458536	0.231784	0.012965
215	H	0.466598	0.235816	0.274345
216	N	0.463085	0.234057	0.095973
217	H	0.483505	0.244267	0.124086
218	H	0.424659	0.214844	0.098906
219	C	0.321296	0.122464	0.344739
220	N	0.375313	0.149846	0.345045
221	C	0.402696	0.203863	0.344736
222	N	0.375314	0.230498	0.345042
223	C	0.321297	0.203864	0.344736
224	H	0.310315	0.214846	0.432239
225	H	0.310313	0.100499	0.432239
226	C	0.486632	0.245832	0.637996
227	C	0.487444	0.246238	0.387979
228	C	0.458536	0.231784	0.3463
229	H	0.466598	0.235816	0.607677
230	N	0.463085	0.234057	0.429308
231	H	0.483505	0.244267	0.457419
232	H	0.424659	0.214844	0.432239
233	C	0.321296	0.122464	0.678073
234	N	0.375313	0.149846	0.678376
235	C	0.402696	0.203863	0.67807
236	N	0.375314	0.230498	0.678376
237	C	0.321297	0.203864	0.67807
238	H	0.310315	0.214846	0.765573
239	H	0.310313	0.100499	0.765573
240	C	0.486632	0.245832	0.97133
241	C	0.487444	0.246238	0.721313
242	C	0.458536	0.231784	0.67963
243	H	0.466598	0.235816	0.941011
244	N	0.463085	0.234057	0.762642
245	H	0.483505	0.244267	0.790753
246	H	0.424659	0.214844	0.765573
247	C	0.321296	0.622463	0.011404
248	N	0.375313	0.649847	0.01171
249	C	0.402695	0.703863	0.011403
250	N	0.375314	0.730499	0.011709
251	C	0.321296	0.703863	0.011403
252	H	0.310314	0.714844	0.098906
253	H	0.310313	0.6005	0.098906
254	C	0.486631	0.745833	0.304663
255	C	0.487445	0.746238	0.054647
256	C	0.458535	0.731782	0.012965
257	H	0.466599	0.735816	0.274345
258	N	0.463083	0.734057	0.095973
259	H	0.483503	0.744264	0.124086
260	H	0.424658	0.714844	0.098906
261	C	0.321296	0.622463	0.344739
262	N	0.375313	0.649847	0.345045
263	C	0.402695	0.703863	0.344736
264	N	0.375314	0.730499	0.345042
265	C	0.321296	0.703863	0.344736
266	H	0.310314	0.714844	0.432239
267	H	0.310313	0.6005	0.432239
268	C	0.486631	0.745833	0.637996
269	C	0.487445	0.746238	0.387979
270	C	0.458535	0.731782	0.3463
271	H	0.466599	0.735816	0.607677
272	N	0.463083	0.734057	0.429308
273	H	0.483503	0.744264	0.457419
274	H	0.424658	0.714844	0.432239
275	C	0.321296	0.622463	0.678073
276	N	0.375313	0.649847	0.678376
277	C	0.402695	0.703863	0.67807
278	N	0.375314	0.730499	0.678376
279	C	0.321296	0.703863	0.67807
280	H	0.310314	0.714844	0.765573
281	H	0.310313	0.6005	0.765573
282	C	0.486631	0.745833	0.97133
283	C	0.487445	0.746238	0.721313
284	C	0.458535	0.731782	0.67963
285	H	0.466599	0.735816	0.941011
286	N	0.463083	0.734057	0.762642
287	H	0.483503	0.744264	0.790753
288	H	0.424658	0.714844	0.765573
289	C	0.708895	0.397661	0.01071
290	N	0.654877	0.370283	0.01086
291	C	0.6275	0.316265	0.010713
292	N	0.654876	0.289625	0.010863
293	C	0.708893	0.316265	0.010713
294	N	0.735534	0.370282	0.01086
295	C	0.821298	0.122464	0.011404
296	N	0.875314	0.149846	0.01171
297	C	0.902698	0.203863	0.011403
298	N	0.875315	0.230498	0.011709
299	C	0.821298	0.203864	0.011403
300	N	0.79466	0.149847	0.01171
301	C	0.779328	0.245832	0.304662
302	C	0.751388	0.273772	0.303877
303	C	0.736781	0.288378	0.011433
304	C	0.750743	0.274414	0.053069
305	C	0.778919	0.246238	0.054647
306	C	0.793374	0.231783	0.012964
307	H	0.789347	0.235817	0.274345
308	H	0.741802	0.283359	0.273171
309	H	0.74018	0.284976	0.082849
310	N	0.7911	0.234057	0.095973
311	H	0.780891	0.244267	0.124085
312	H	0.810315	0.214846	0.098906
313	C	0.779328	0.03853	0.304662
314	C	0.751389	0.482649	0.303875
315	C	0.73678	0.453432	0.01143
316	C	0.750744	0.481359	0.053067
317	C	0.778919	0.037713	0.054646
318	C	0.793374	0.066624	0.012964
319	H	0.789343	0.058562	0.274344
320	H	0.741803	0.463477	0.273168
321	H	0.740181	0.460233	0.082847
322	N	0.791099	0.062074	0.095973
323	H	0.780892	0.041652	0.124085
324	H	0.810312	0.100499	0.098906
325	C	0.986632	0.245832	0.304663
326	C	0.542513	0.273772	0.303877
327	C	0.571725	0.288379	0.011433
328	C	0.5438	0.274415	0.053069
329	C	0.987447	0.246238	0.054647
330	C	0.958538	0.231784	0.012965
331	H	0.966598	0.235816	0.274345
332	H	0.561685	0.283359	0.273171
333	H	0.564926	0.284978	0.08285
334	N	0.963085	0.234057	0.095973
335	H	0.983505	0.244267	0.124086
336	H	0.924658	0.214844	0.098906
337	C	0.708895	0.397661	0.344042
338	N	0.654877	0.370283	0.344195
339	C	0.6275	0.316265	0.344049
340	N	0.654876	0.289625	0.344198
341	C	0.708893	0.316265	0.344045
342	N	0.735534	0.370282	0.344195
343	C	0.821298	0.122464	0.344739
344	N	0.875314	0.149846	0.345045
345	C	0.902698	0.203863	0.344736
346	N	0.875315	0.230498	0.345042
347	C	0.821298	0.203864	0.344736
348	N	0.79466	0.149847	0.345045
349	C	0.779328	0.245832	0.637996
350	C	0.751388	0.273772	0.63721
351	C	0.736781	0.288378	0.344766
352	C	0.750743	0.274414	0.386401
353	C	0.778919	0.246238	0.387979
354	C	0.793374	0.231783	0.346296
355	H	0.789347	0.235817	0.607677
356	H	0.741802	0.283359	0.606504
357	H	0.74018	0.284976	0.416182
358	N	0.7911	0.234057	0.429308
359	H	0.780891	0.244267	0.457419
360	H	0.810315	0.214846	0.432239
361	C	0.779328	0.03853	0.637996
362	C	0.751389	0.482649	0.637207
363	C	0.73678	0.453432	0.344763
364	C	0.750744	0.481359	0.386401
365	C	0.778919	0.037713	0.387979
366	C	0.793374	0.066624	0.346296
367	H	0.789343	0.058562	0.607677
368	H	0.741803	0.463477	0.606501
369	H	0.740181	0.460233	0.416182
370	N	0.791099	0.062074	0.429308
371	H	0.780892	0.041652	0.457419
372	H	0.810312	0.100499	0.432239
373	C	0.986632	0.245832	0.637996
374	C	0.542513	0.273772	0.63721
375	C	0.571725	0.288379	0.344766
376	C	0.5438	0.274415	0.386401
377	C	0.987447	0.246238	0.387979
378	C	0.958538	0.231784	0.3463
379	H	0.966598	0.235816	0.607677
380	H	0.561685	0.283359	0.606504
381	H	0.564926	0.284978	0.416182
382	N	0.963085	0.234057	0.429308
383	H	0.983505	0.244267	0.457419
384	H	0.924658	0.214844	0.432239
385	C	0.708895	0.397661	0.677376
386	N	0.654877	0.370283	0.677529
387	C	0.6275	0.316265	0.677379
388	N	0.654876	0.289625	0.677529
389	C	0.708893	0.316265	0.677379
390	N	0.735534	0.370282	0.677526
391	C	0.821298	0.122464	0.678073
392	N	0.875314	0.149846	0.678376
393	C	0.902698	0.203863	0.67807
394	N	0.875315	0.230498	0.678376
395	C	0.821298	0.203864	0.67807
396	N	0.79466	0.149847	0.678376
397	C	0.779328	0.245832	0.97133
398	C	0.751388	0.273772	0.970544
399	C	0.736781	0.288378	0.6781
400	C	0.750743	0.274414	0.719735
401	C	0.778919	0.246238	0.721313
402	C	0.793374	0.231783	0.67963
403	H	0.789347	0.235817	0.941011
404	H	0.741802	0.283359	0.939838
405	H	0.74018	0.284976	0.749516
406	N	0.7911	0.234057	0.762642
407	H	0.780891	0.244267	0.790753
408	H	0.810315	0.214846	0.765573
409	C	0.779328	0.03853	0.97133
410	C	0.751389	0.482649	0.970541
411	C	0.73678	0.453432	0.678097
412	C	0.750744	0.481359	0.719735
413	C	0.778919	0.037713	0.721313
414	C	0.793374	0.066624	0.67963
415	H	0.789343	0.058562	0.941011
416	H	0.741803	0.463477	0.939835
417	H	0.740181	0.460233	0.749516
418	N	0.791099	0.062074	0.762642
419	H	0.780892	0.041652	0.790753
420	H	0.810312	0.100499	0.765573
421	C	0.986632	0.245832	0.97133
422	C	0.542513	0.273772	0.970544
423	C	0.571725	0.288379	0.6781
424	C	0.5438	0.274415	0.719735
425	C	0.987447	0.246238	0.721313
426	C	0.958538	0.231784	0.67963
427	H	0.966598	0.235816	0.941011
428	H	0.561685	0.283359	0.939838
429	H	0.564926	0.284978	0.749516
430	N	0.963085	0.234057	0.762642
431	H	0.983505	0.244267	0.790753
432	H	0.924658	0.214844	0.765573
433	C	0.708895	0.897661	0.01071
434	N	0.654876	0.870282	0.01086
435	C	0.627499	0.816266	0.010713
436	N	0.654876	0.789625	0.010863
437	C	0.708894	0.816266	0.010713
438	N	0.735534	0.870282	0.01086
439	C	0.821296	0.622463	0.011404
440	N	0.875313	0.649847	0.01171
441	C	0.902696	0.703863	0.011403
442	N	0.875314	0.730499	0.011709
443	C	0.821295	0.703863	0.011403
444	N	0.794662	0.649847	0.01171
445	C	0.77933	0.745833	0.304662
446	C	0.751389	0.773772	0.303877
447	C	0.736781	0.788378	0.011433
448	C	0.750745	0.774415	0.053069
449	C	0.778921	0.746238	0.054647
450	C	0.793375	0.731782	0.012964
451	H	0.789344	0.735816	0.274345
452	H	0.741804	0.78336	0.273171
453	H	0.740178	0.784976	0.082849
454	N	0.791102	0.734057	0.095973
455	H	0.780893	0.744268	0.124085
456	H	0.810313	0.714844	0.098906
457	C	0.779328	0.538527	0.304662
458	C	0.751389	0.982649	0.303875
459	C	0.73678	0.953432	0.01143
460	C	0.750743	0.981359	0.053067
461	C	0.778921	0.537713	0.054646
462	C	0.793375	0.566621	0.012964
463	H	0.789345	0.558562	0.274344
464	H	0.741802	0.963476	0.273168
465	H	0.740181	0.960233	0.082847
466	N	0.7911	0.562071	0.095973
467	H	0.78089	0.541652	0.124085
468	H	0.810314	0.6005	0.098906
469	C	0.986631	0.745833	0.304663
470	C	0.542511	0.773772	0.303877
471	C	0.571725	0.788378	0.011433
472	C	0.543799	0.774415	0.053069
473	C	0.987445	0.746238	0.054647
474	C	0.958535	0.731782	0.012965
475	H	0.9666	0.735816	0.274345
476	H	0.561683	0.783356	0.273171
477	H	0.564924	0.784976	0.08285
478	N	0.963083	0.734057	0.095973
479	H	0.983505	0.744264	0.124086
480	H	0.92466	0.714844	0.098906
481	C	0.708895	0.897661	0.344042
482	N	0.654876	0.870282	0.344195
483	C	0.627499	0.816266	0.344049
484	N	0.654876	0.789625	0.344198
485	C	0.708894	0.816266	0.344045
486	N	0.735534	0.870282	0.344195
487	C	0.821296	0.622463	0.344739
488	N	0.875313	0.649847	0.345045
489	C	0.902696	0.703863	0.344736
490	N	0.875314	0.730499	0.345042
491	C	0.821295	0.703863	0.344736
492	N	0.794662	0.649847	0.345045
493	C	0.77933	0.745833	0.637996
494	C	0.751389	0.773772	0.63721
495	C	0.736781	0.788378	0.344766
496	C	0.750745	0.774415	0.386401
497	C	0.778921	0.746238	0.387979
498	C	0.793375	0.731782	0.346296
499	H	0.789344	0.735816	0.607677
500	H	0.741804	0.78336	0.606504
501	H	0.740178	0.784976	0.416182
502	N	0.791102	0.734057	0.429308
503	H	0.780893	0.744268	0.457419
504	H	0.810313	0.714844	0.432239
505	C	0.779328	0.538527	0.637996
506	C	0.751389	0.982649	0.637207
507	C	0.73678	0.953432	0.344763
508	C	0.750743	0.981359	0.386401
509	C	0.778921	0.537713	0.387979
510	C	0.793375	0.566621	0.346296
511	H	0.789345	0.558562	0.607677
512	H	0.741802	0.963476	0.606501
513	H	0.740181	0.960233	0.416182
514	N	0.7911	0.562071	0.429308
515	H	0.78089	0.541652	0.457419
516	H	0.810314	0.6005	0.432239
517	C	0.986631	0.745833	0.637996
518	C	0.542511	0.773772	0.63721
519	C	0.571725	0.788378	0.344766
520	C	0.543799	0.774415	0.386401
521	C	0.987445	0.746238	0.387979
522	C	0.958535	0.731782	0.3463
523	H	0.9666	0.735816	0.607677
524	H	0.561683	0.783356	0.606504
525	H	0.564924	0.784976	0.416182
526	N	0.963083	0.734057	0.429308
527	H	0.983505	0.744264	0.457419
528	H	0.92466	0.714844	0.432239
529	C	0.708895	0.897661	0.677376
530	N	0.654876	0.870282	0.677529
531	C	0.627499	0.816266	0.677379
532	N	0.654876	0.789625	0.677529
533	C	0.708894	0.816266	0.677379
534	N	0.735534	0.870282	0.677526
535	C	0.821296	0.622463	0.678073
536	N	0.875313	0.649847	0.678376
537	C	0.902696	0.703863	0.67807
538	N	0.875314	0.730499	0.678376
539	C	0.821295	0.703863	0.67807
540	N	0.794662	0.649847	0.678376
541	C	0.77933	0.745833	0.97133
542	C	0.751389	0.773772	0.970544
543	C	0.736781	0.788378	0.6781
544	C	0.750745	0.774415	0.719735
545	C	0.778921	0.746238	0.721313
546	C	0.793375	0.731782	0.67963
547	H	0.789344	0.735816	0.941011
548	H	0.741804	0.78336	0.939838
549	H	0.740178	0.784976	0.749516
550	N	0.791102	0.734057	0.762642
551	H	0.780893	0.744268	0.790753
552	H	0.810313	0.714844	0.765573
553	C	0.779328	0.538527	0.97133
554	C	0.751389	0.982649	0.970541
555	C	0.73678	0.953432	0.678097
556	C	0.750743	0.981359	0.719735
557	C	0.778921	0.537713	0.721313
558	C	0.793375	0.566621	0.67963
559	H	0.789345	0.558562	0.941011
560	H	0.741802	0.963476	0.939835
561	H	0.740181	0.960233	0.749516
562	N	0.7911	0.562071	0.762642
563	H	0.78089	0.541652	0.790753
564	H	0.810314	0.6005	0.765573
565	C	0.986631	0.745833	0.97133
566	C	0.542511	0.773772	0.970544
567	C	0.571725	0.788378	0.6781
568	C	0.543799	0.774415	0.719735
569	C	0.987445	0.746238	0.721313
570	C	0.958535	0.731782	0.67963
571	H	0.9666	0.735816	0.941011
572	H	0.561683	0.783356	0.939838
573	H	0.564924	0.784976	0.749516
574	N	0.963083	0.734057	0.762642
575	H	0.983505	0.744264	0.790753
576	H	0.92466	0.714844	0.765573
