data_C162H144N36_2018-02-15_10:33:56
#******************************************
#
# CIF file created by Zeo++
# Zeo++ is an open source package to
# analyze microporous materials
#
#*******************************************

_cell_length_a		29.0085   
_cell_length_b		29.0086   
_cell_length_c		30.0298   
_cell_angle_alpha		90   
_cell_angle_beta		90   
_cell_angle_gamma		120   

_symmetry_space_group_name_H-M		'P1'
_symmetry_Int_Tables_number		1
_symmetry_cell_setting		Monoclinic

loop_
_symmetry_equiv_pos_as_xyz
'+x,+y,+z'

loop_
_atom_site_label
_atom_site_type_symbol
_atom_site_fract_x
_atom_site_fract_y
_atom_site_fract_z
1	C	0.349646	0.630116	0.039839
2	N	0.296778	0.613613	0.040039
3	C	0.279114	0.649032	0.039944
4	N	0.315475	0.701897	0.040036
5	C	0.368561	0.719571	0.03981
6	N	0.38506	0.683201	0.03992
7	N	0.223833	0.630383	0.039093
8	H	0.217303	0.661913	0.042712
9	N	0.405218	0.774853	0.03887
10	H	0.443317	0.781349	0.041992
11	N	0.368276	0.593467	0.038991
12	H	0.33671	0.555393	0.042409
13	C	0.637244	0.358777	0.951027
14	N	0.691346	0.386797	0.951134
15	C	0.720174	0.361643	0.950768
16	N	0.694092	0.307542	0.950944
17	C	0.640108	0.278702	0.950854
18	N	0.612093	0.304793	0.951171
19	N	0.776188	0.391969	0.953495
20	H	0.79193	0.368409	0.944684
21	N	0.614406	0.222665	0.953488
22	H	0.57484	0.206982	0.945633
23	N	0.606919	0.384467	0.953855
24	H	0.630613	0.423912	0.945523
25	C	0.419795	0.56007	0.332381
26	C	0.408565	0.521793	0.298904
27	C	0.432017	0.489555	0.29986
28	C	0.466974	0.493691	0.334654
29	C	0.478267	0.532429	0.03512
30	C	0.454952	0.56507	0.033607
31	H	0.463724	0.592966	0.057957
32	C	0.49457	0.463829	0.33496
33	C	0.477119	0.416301	0.310196
34	C	0.506162	0.38943	0.30986
35	C	0.553555	0.408782	0.001293
36	C	0.570465	0.455016	0.027279
37	C	0.541343	0.482119	0.0281
38	H	0.442663	0.400017	0.292207
39	H	0.492588	0.355607	0.291127
40	H	0.604856	0.469617	0.045388
41	H	0.384265	0.518048	0.272791
42	C	0.561281	0.531442	0.055229
43	C	0.514726	0.538277	0.072288
44	H	0.587753	0.565575	0.03454
45	H	0.584044	0.530746	0.084014
46	H	0.531082	0.577016	0.088661
47	H	0.492033	0.507563	0.097108
48	H	0.424504	0.464462	0.273578
49	C	0.585002	0.381144	0.999286
50	H	0.558746	0.339485	0.008554
51	H	0.617603	0.398174	0.023531
52	C	0.397368	0.596254	0.330706
53	H	0.370778	0.58715	0.302068
54	H	0.430826	0.636648	0.326085
55	C	0.438412	0.859738	0.332179
56	C	0.476069	0.886618	0.298245
57	C	0.508381	0.942306	0.298983
58	C	0.505038	0.973279	0.334048
59	C	0.466966	0.945996	0.035004
60	C	0.434166	0.890049	0.033669
61	H	0.406729	0.871046	0.058361
62	C	0.535067	0.030734	0.334261
63	C	0.582122	0.060649	0.308881
64	C	0.609193	0.11657	0.308548
65	C	0.590521	0.144779	0.000581
66	C	0.544751	0.115614	0.02712
67	C	0.517465	0.059388	0.027947
68	H	0.597932	0.042354	0.290452
69	H	0.642668	0.136699	0.289392
70	H	0.530661	0.13553	0.04569
71	H	0.479235	0.865951	0.271936
72	C	0.468665	0.030182	0.055719
73	C	0.461986	0.976754	0.072499
74	H	0.434164	0.022589	0.035573
75	H	0.47001	0.053735	0.084659
76	H	0.42357	0.954506	0.08939
77	H	0.493166	0.984727	0.096829
78	H	0.533028	0.959761	0.272424
79	C	0.618385	0.203879	0.998667
80	H	0.660171	0.219063	0.007364
81	H	0.601933	0.219548	0.02336
82	C	0.402056	0.801148	0.33071
83	H	0.410701	0.783514	0.301913
84	H	0.361659	0.794353	0.326502
85	C	0.139038	0.57903	0.332299
86	C	0.111987	0.590641	0.299091
87	C	0.056275	0.566977	0.299983
88	C	0.025443	0.531454	0.334467
89	C	0.052894	0.519815	0.034687
90	C	0.108873	0.54334	0.033228
91	H	0.128007	0.534304	0.057384
92	C	0.967985	0.503754	0.33472
93	C	0.937872	0.521491	0.310363
94	C	0.881958	0.492417	0.310035
95	C	0.853957	0.444682	0.001038
96	C	0.88332	0.427439	0.026588
97	C	0.939541	0.4566	0.027421
98	H	0.956014	0.556209	0.292729
99	H	0.861677	0.506226	0.291624
100	H	0.863558	0.39281	0.044396
101	H	0.132549	0.615304	0.273164
102	C	0.968986	0.436355	0.054103
103	C	0.022266	0.48274	0.071517
104	H	0.9768	0.410298	0.032995
105	H	0.945502	0.413077	0.08269
106	H	0.044703	0.466229	0.087549
107	H	0.014103	0.50498	0.096684
108	H	0.0387	0.57479	0.273871
109	C	0.79487	0.413256	0.999073
110	H	0.779477	0.439376	0.008823
111	H	0.77935	0.380327	0.022996
112	C	0.197673	0.601643	0.330643
113	H	0.215146	0.628528	0.302175
114	H	0.204756	0.568318	0.325721
115	C	0.349646	0.630116	0.373172
116	N	0.296778	0.613613	0.373372
117	C	0.279114	0.649032	0.373279
118	N	0.315475	0.701897	0.373369
119	C	0.368561	0.719571	0.373145
120	N	0.38506	0.683201	0.373252
121	N	0.223833	0.630383	0.372426
122	H	0.217303	0.661913	0.376046
123	N	0.405218	0.774853	0.372203
124	H	0.443317	0.781349	0.375327
125	N	0.368276	0.593467	0.372326
126	H	0.33671	0.555393	0.375743
127	C	0.637244	0.358777	0.28436
128	N	0.691346	0.386797	0.284466
129	C	0.720174	0.361643	0.284102
130	N	0.694092	0.307542	0.284277
131	C	0.640108	0.278702	0.284187
132	N	0.612093	0.304793	0.284502
133	N	0.776188	0.391969	0.286829
134	H	0.79193	0.368409	0.278014
135	N	0.614406	0.222665	0.286819
136	H	0.57484	0.206982	0.278965
137	N	0.606919	0.384467	0.287187
138	H	0.630613	0.423912	0.278856
139	C	0.419795	0.56007	0.665714
140	C	0.408565	0.521793	0.632238
141	C	0.432017	0.489555	0.633193
142	C	0.466974	0.493691	0.667989
143	C	0.478267	0.532429	0.368453
144	C	0.454952	0.56507	0.366942
145	H	0.463724	0.592966	0.391291
146	C	0.49457	0.463829	0.668295
147	C	0.477119	0.416301	0.64353
148	C	0.506162	0.38943	0.643194
149	C	0.553555	0.408782	0.334627
150	C	0.570465	0.455016	0.360611
151	C	0.541343	0.482119	0.361434
152	H	0.442663	0.400017	0.625541
153	H	0.492588	0.355607	0.624462
154	H	0.604856	0.469617	0.378723
155	H	0.384265	0.518048	0.606124
156	C	0.561281	0.531442	0.388563
157	C	0.514726	0.538277	0.405623
158	H	0.587753	0.565575	0.367874
159	H	0.584044	0.530746	0.417348
160	H	0.531082	0.577016	0.421997
161	H	0.492033	0.507563	0.430442
162	H	0.424504	0.464462	0.606913
163	C	0.585002	0.381144	0.332619
164	H	0.558746	0.339485	0.341887
165	H	0.617603	0.398174	0.356865
166	C	0.397368	0.596254	0.664039
167	H	0.370778	0.58715	0.635401
168	H	0.430826	0.636648	0.659417
169	C	0.438412	0.859738	0.665511
170	C	0.476069	0.886618	0.631578
171	C	0.508381	0.942306	0.632318
172	C	0.505038	0.973279	0.667383
173	C	0.466966	0.945996	0.368337
174	C	0.434166	0.890049	0.367002
175	H	0.406729	0.871046	0.391694
176	C	0.535067	0.030734	0.667593
177	C	0.582122	0.060649	0.642215
178	C	0.609193	0.11657	0.641881
179	C	0.590521	0.144779	0.333915
180	C	0.544751	0.115614	0.360455
181	C	0.517465	0.059388	0.361281
182	H	0.597932	0.042354	0.623786
183	H	0.642668	0.136699	0.622727
184	H	0.530661	0.13553	0.379023
185	H	0.479235	0.865951	0.605271
186	C	0.468665	0.030182	0.389053
187	C	0.461986	0.976754	0.405833
188	H	0.434164	0.022589	0.368906
189	H	0.47001	0.053735	0.417994
190	H	0.42357	0.954506	0.422723
191	H	0.493166	0.984727	0.430162
192	H	0.533028	0.959761	0.605757
193	C	0.618385	0.203879	0.331998
194	H	0.660171	0.219063	0.340698
195	H	0.601933	0.219548	0.356695
196	C	0.402056	0.801148	0.664043
197	H	0.410701	0.783514	0.635248
198	H	0.361659	0.794353	0.659837
199	C	0.139038	0.57903	0.665631
200	C	0.111987	0.590641	0.632424
201	C	0.056275	0.566977	0.633317
202	C	0.025443	0.531454	0.667802
203	C	0.052894	0.519815	0.368021
204	C	0.108873	0.54334	0.366562
205	H	0.128007	0.534304	0.390718
206	C	0.967985	0.503754	0.668055
207	C	0.937872	0.521491	0.643696
208	C	0.881958	0.492417	0.64337
209	C	0.853957	0.444682	0.334371
210	C	0.88332	0.427439	0.359922
211	C	0.939541	0.4566	0.360754
212	H	0.956014	0.556209	0.626064
213	H	0.861677	0.506226	0.624958
214	H	0.863558	0.39281	0.377731
215	H	0.132549	0.615304	0.606497
216	C	0.968986	0.436355	0.387438
217	C	0.022266	0.48274	0.404851
218	H	0.9768	0.410298	0.366329
219	H	0.945502	0.413077	0.416023
220	H	0.044703	0.466229	0.420881
221	H	0.014103	0.50498	0.430019
222	H	0.0387	0.57479	0.607206
223	C	0.79487	0.413256	0.332404
224	H	0.779477	0.439376	0.342156
225	H	0.77935	0.380327	0.356329
226	C	0.197673	0.601643	0.663976
227	H	0.215146	0.628528	0.635508
228	H	0.204756	0.568318	0.659054
229	C	0.349646	0.630116	0.706507
230	N	0.296778	0.613613	0.706707
231	C	0.279114	0.649032	0.70661
232	N	0.315475	0.701897	0.706704
233	C	0.368561	0.719571	0.706477
234	N	0.38506	0.683201	0.706587
235	N	0.223833	0.630383	0.705761
236	H	0.217303	0.661913	0.709378
237	N	0.405218	0.774853	0.705538
238	H	0.443317	0.781349	0.708658
239	N	0.368276	0.593467	0.705658
240	H	0.33671	0.555393	0.709078
241	C	0.637244	0.358777	0.617696
242	N	0.691346	0.386797	0.617799
243	C	0.720174	0.361643	0.617436
244	N	0.694092	0.307542	0.617612
245	C	0.640108	0.278702	0.617522
246	N	0.612093	0.304793	0.617835
247	N	0.776188	0.391969	0.620163
248	H	0.79193	0.368409	0.611349
249	N	0.614406	0.222665	0.620153
250	H	0.57484	0.206982	0.612298
251	N	0.606919	0.384467	0.620519
252	H	0.630613	0.423912	0.612191
253	C	0.419795	0.56007	0.99905
254	C	0.408565	0.521793	0.965573
255	C	0.432017	0.489555	0.966529
256	C	0.466974	0.493691	0.00132
257	C	0.478267	0.532429	0.701789
258	C	0.454952	0.56507	0.700273
259	H	0.463724	0.592966	0.724626
260	C	0.49457	0.463829	0.001628
261	C	0.477119	0.416301	0.976865
262	C	0.506162	0.38943	0.976529
263	C	0.553555	0.408782	0.667959
264	C	0.570465	0.455016	0.693946
265	C	0.541343	0.482119	0.694769
266	H	0.442663	0.400017	0.958873
267	H	0.492588	0.355607	0.957794
268	H	0.604856	0.469617	0.712055
269	H	0.384265	0.518048	0.939459
270	C	0.561281	0.531442	0.721899
271	C	0.514726	0.538277	0.738955
272	H	0.587753	0.565575	0.701209
273	H	0.584044	0.530746	0.75068
274	H	0.531082	0.577016	0.755329
275	H	0.492033	0.507563	0.763777
276	H	0.424504	0.464462	0.940245
277	C	0.585002	0.381144	0.665954
278	H	0.558746	0.339485	0.675222
279	H	0.617603	0.398174	0.6902
280	C	0.397368	0.596254	0.997375
281	H	0.370778	0.58715	0.968736
282	H	0.430826	0.636648	0.992752
283	C	0.438412	0.859738	0.998846
284	C	0.476069	0.886618	0.964914
285	C	0.508381	0.942306	0.965649
286	C	0.505038	0.973279	0.000715
287	C	0.466966	0.945996	0.701672
288	C	0.434166	0.890049	0.700337
289	H	0.406729	0.871046	0.725029
290	C	0.535067	0.030734	0.000926
291	C	0.582122	0.060649	0.97555
292	C	0.609193	0.11657	0.975217
293	C	0.590521	0.144779	0.66725
294	C	0.544751	0.115614	0.693787
295	C	0.517465	0.059388	0.694616
296	H	0.597932	0.042354	0.957118
297	H	0.642668	0.136699	0.956059
298	H	0.530661	0.13553	0.712358
299	H	0.479235	0.865951	0.938603
300	C	0.468665	0.030182	0.722388
301	C	0.461986	0.976754	0.739165
302	H	0.434164	0.022589	0.702241
303	H	0.47001	0.053735	0.751326
304	H	0.42357	0.954506	0.756058
305	H	0.493166	0.984727	0.763497
306	H	0.533028	0.959761	0.939093
307	C	0.618385	0.203879	0.665332
308	H	0.660171	0.219063	0.674033
309	H	0.601933	0.219548	0.690027
310	C	0.402056	0.801148	0.997378
311	H	0.410701	0.783514	0.96858
312	H	0.361659	0.794353	0.993169
313	C	0.139038	0.57903	0.998966
314	C	0.111987	0.590641	0.965759
315	C	0.056275	0.566977	0.966652
316	C	0.025443	0.531454	0.001134
317	C	0.052894	0.519815	0.701356
318	C	0.108873	0.54334	0.699897
319	H	0.128007	0.534304	0.724053
320	C	0.967985	0.503754	0.001387
321	C	0.937872	0.521491	0.977031
322	C	0.881958	0.492417	0.976702
323	C	0.853957	0.444682	0.667706
324	C	0.88332	0.427439	0.693257
325	C	0.939541	0.4566	0.69409
326	H	0.956014	0.556209	0.959396
327	H	0.861677	0.506226	0.958293
328	H	0.863558	0.39281	0.711063
329	H	0.132549	0.615304	0.939832
330	C	0.968986	0.436355	0.72077
331	C	0.022266	0.48274	0.738186
332	H	0.9768	0.410298	0.699664
333	H	0.945502	0.413077	0.749358
334	H	0.044703	0.466229	0.754216
335	H	0.014103	0.50498	0.763351
336	H	0.0387	0.57479	0.940538
337	C	0.79487	0.413256	0.665738
338	H	0.779477	0.439376	0.675491
339	H	0.77935	0.380327	0.689664
340	C	0.197673	0.601643	0.997311
341	H	0.215146	0.628528	0.968843
342	H	0.204756	0.568318	0.99239
