data_C180H198N90_2018-02-15_10:33:25
#******************************************
#
# CIF file created by Zeo++
# Zeo++ is an open source package to
# analyze microporous materials
#
#*******************************************

_cell_length_a		33.3906   
_cell_length_b		33.0271   
_cell_length_c		30.0468   
_cell_angle_alpha		90   
_cell_angle_beta		90   
_cell_angle_gamma		120.079   

_symmetry_space_group_name_H-M		'P1'
_symmetry_Int_Tables_number		1
_symmetry_cell_setting		Monoclinic

loop_
_symmetry_equiv_pos_as_xyz
'+x,+y,+z'

loop_
_atom_site_label
_atom_site_type_symbol
_atom_site_fract_x
_atom_site_fract_y
_atom_site_fract_z
1	N	0.029832	0.044281	0.030784
2	C	0.038332	0.008138	0.031187
3	N	0.001909	0.963694	0.032035
4	N	0.029832	0.044281	0.364118
5	C	0.038332	0.008138	0.364521
6	N	0.001909	0.963694	0.36537
7	N	0.029832	0.044281	0.697451
8	C	0.038332	0.008138	0.697854
9	N	0.001909	0.963694	0.698702
10	H	0.006471	0.105026	0.035442
11	H	0.006471	0.105026	0.368774
12	H	0.006471	0.105026	0.70211
13	N	0.084455	0.017613	0.033856
14	N	0.084455	0.017613	0.36719
15	N	0.084455	0.017613	0.700523
16	H	0.084914	0.987043	0.038789
17	H	0.084914	0.987043	0.372122
18	H	0.084914	0.987043	0.705455
19	C	0.98588	0.036568	0.029875
20	C	0.957633	0.95502	0.031183
21	N	0.950109	0.991791	0.030798
22	N	0.920815	0.908372	0.033664
23	H	0.889985	0.907808	0.037918
24	N	0.976363	0.073638	0.031211
25	C	0.386928	0.187387	0.995755
26	N	0.424894	0.183106	0.002119
27	C	0.468257	0.220442	0.997513
28	N	0.473334	0.262745	0.986553
29	C	0.435891	0.26798	0.980066
30	N	0.393028	0.229816	0.984163
31	N	0.5066	0.213868	0.003324
32	H	0.53662	0.245753	0.004406
33	N	0.441219	0.311959	0.968405
34	H	0.409198	0.308163	0.962357
35	N	0.341587	0.148658	0.997935
36	H	0.34232	0.118318	0.003438
37	C	0.797785	0.197688	0.995715
38	N	0.802088	0.240343	0.00242
39	C	0.765133	0.246799	0.998491
40	N	0.723174	0.209569	0.987788
41	C	0.717886	0.166461	0.981015
42	N	0.755679	0.161352	0.98443
43	N	0.771786	0.292194	0.004457
44	H	0.74029	0.290668	0.005689
45	N	0.674275	0.127889	0.969416
46	H	0.677831	0.09919	0.963442
47	N	0.836281	0.190921	0.99679
48	H	0.86622	0.222136	0.002328
49	C	0.78781	0.602757	0.996464
50	N	0.745493	0.564391	0.002725
51	C	0.738941	0.520545	0.998162
52	N	0.775714	0.51539	0.987342
53	C	0.818455	0.553229	0.980972
54	N	0.823689	0.596578	0.985015
55	N	0.693962	0.481803	0.003788
56	H	0.695354	0.451422	0.004768
57	N	0.856624	0.547816	0.96942
58	H	0.884996	0.580182	0.963416
59	N	0.794919	0.648584	0.998521
60	H	0.764146	0.647828	0.003883
61	C	0.183306	0.063895	0.04407
62	C	0.230857	0.090097	0.05326
63	C	0.261886	0.120951	0.021204
64	C	0.244232	0.123475	0.312574
65	C	0.196557	0.096348	0.302101
66	C	0.165111	0.06682	0.335633
67	H	0.162123	0.043423	0.069085
68	H	0.242338	0.088029	0.084288
69	H	0.266673	0.146105	0.289263
70	N	0.182943	0.100706	0.260467
71	H	0.205256	0.120934	0.238253
72	H	0.151058	0.082339	0.250644
73	C	0.113962	0.042265	0.327971
74	H	0.105167	0.017176	0.300743
75	H	0.106104	0.069159	0.317096
76	C	0.31147	0.152817	0.031877
77	H	0.320483	0.145958	0.064981
78	H	0.31654	0.188215	0.032412
79	C	0.925878	0.122245	0.041807
80	C	0.897653	0.141416	0.051298
81	C	0.8662	0.140086	0.019333
82	C	0.865034	0.120643	0.31051
83	C	0.894078	0.102217	0.299775
84	C	0.924329	0.1018	0.33319
85	H	0.946854	0.122601	0.066727
86	H	0.89893	0.154631	0.082401
87	H	0.842068	0.11948	0.287229
88	N	0.890863	0.084767	0.257992
89	H	0.870094	0.0858	0.235865
90	H	0.910549	0.072752	0.24798
91	C	0.951129	0.077294	0.325256
92	H	0.975814	0.094873	0.298192
93	H	0.925981	0.04199	0.31397
94	C	0.832912	0.156065	0.030048
95	H	0.838491	0.171137	0.063493
96	H	0.798443	0.124883	0.029616
97	C	0.868495	0.808468	0.044168
98	C	0.847137	0.760454	0.053528
99	C	0.847132	0.72917	0.021715
100	C	0.867539	0.747015	0.313158
101	C	0.888171	0.795147	0.302528
102	C	0.889854	0.826869	0.335816
103	H	0.869068	0.82985	0.06902
104	H	0.833367	0.748838	0.084485
105	H	0.867805	0.724372	0.290016
106	N	0.906395	0.808916	0.260983
107	H	0.904528	0.78641	0.238959
108	H	0.920083	0.841117	0.251071
109	C	0.916433	0.878556	0.328018
110	H	0.900525	0.887101	0.300449
111	H	0.951137	0.886839	0.317575
112	C	0.829104	0.679095	0.032505
113	H	0.813223	0.669987	0.065573
114	H	0.859101	0.674071	0.033143
115	C	0.612728	0.164578	0.291823
116	C	0.582829	0.18193	0.283068
117	C	0.545354	0.171226	0.311602
118	C	0.539368	0.143668	0.016299
119	C	0.569326	0.126016	0.025984
120	C	0.606687	0.136322	0.996264
121	H	0.638312	0.172006	0.269168
122	H	0.587728	0.201104	0.254766
123	H	0.511806	0.135371	0.036818
124	N	0.560217	0.099043	0.063091
125	H	0.534403	0.092523	0.082644
126	H	0.579005	0.085526	0.071682
127	C	0.636759	0.115137	0.002878
128	H	0.613701	0.077167	0.001503
129	H	0.651659	0.123512	0.036381
130	C	0.510721	0.185379	0.300543
131	H	0.477696	0.153074	0.295501
132	H	0.51931	0.205019	0.269245
133	C	0.820373	0.44878	0.292282
134	C	0.803201	0.401116	0.283763
135	C	0.813761	0.374093	0.312507
136	C	0.840949	0.395826	0.017203
137	C	0.858415	0.443853	0.026653
138	C	0.848272	0.471159	0.996707
139	H	0.81309	0.467104	0.26946
140	H	0.784331	0.386739	0.255435
141	H	0.849178	0.376382	0.037845
142	N	0.885059	0.461852	0.063758
143	H	0.891473	0.44238	0.083469
144	H	0.898441	0.494442	0.072187
145	C	0.86925	0.522829	0.003053
146	H	0.906803	0.537546	0.001667
147	H	0.861012	0.529687	0.036503
148	C	0.799867	0.324887	0.301611
149	H	0.831872	0.323978	0.296595
150	H	0.78042	0.313749	0.270328
151	C	0.539176	0.374615	0.291305
152	C	0.586336	0.405004	0.282842
153	C	0.613073	0.442692	0.311659
154	C	0.591547	0.448384	0.016337
155	C	0.54401	0.417967	0.025699
156	C	0.517008	0.380385	0.995705
157	H	0.521047	0.348951	0.268423
158	H	0.600586	0.400339	0.254532
159	H	0.610786	0.476139	0.037035
160	N	0.526176	0.426879	0.06277
161	H	0.545433	0.452856	0.082508
162	H	0.493907	0.40781	0.071123
163	C	0.465888	0.349835	0.001988
164	H	0.451354	0.373065	0.000485
165	H	0.459038	0.334687	0.035462
166	C	0.661823	0.477864	0.300921
167	H	0.662931	0.511258	0.296098
168	H	0.672843	0.469469	0.269586
169	C	0.98588	0.036568	0.36321
170	C	0.957633	0.95502	0.364518
171	N	0.950109	0.991791	0.364131
172	N	0.920815	0.908372	0.366997
173	H	0.889985	0.907808	0.37125
174	N	0.976363	0.073638	0.364544
175	C	0.386928	0.187387	0.329087
176	N	0.424894	0.183106	0.335453
177	C	0.468257	0.220442	0.330844
178	N	0.473334	0.262745	0.319884
179	C	0.435891	0.26798	0.313399
180	N	0.393028	0.229816	0.317497
181	N	0.5066	0.213868	0.336658
182	H	0.53662	0.245753	0.337739
183	N	0.441219	0.311959	0.301737
184	H	0.409198	0.308163	0.295689
185	N	0.341587	0.148658	0.331268
186	H	0.34232	0.118318	0.336771
187	C	0.797785	0.197688	0.329047
188	N	0.802088	0.240343	0.335752
189	C	0.765133	0.246799	0.331823
190	N	0.723174	0.209569	0.321122
191	C	0.717886	0.166461	0.314346
192	N	0.755679	0.161352	0.317761
193	N	0.771786	0.292194	0.337793
194	H	0.74029	0.290668	0.339024
195	N	0.674275	0.127889	0.302748
196	H	0.677831	0.09919	0.296774
197	N	0.836281	0.190921	0.330124
198	H	0.86622	0.222136	0.335663
199	C	0.78781	0.602757	0.329796
200	N	0.745493	0.564391	0.336059
201	C	0.738941	0.520545	0.331495
202	N	0.775714	0.51539	0.320674
203	C	0.818455	0.553229	0.314303
204	N	0.823689	0.596578	0.318349
205	N	0.693962	0.481803	0.337124
206	H	0.695354	0.451422	0.338102
207	N	0.856624	0.547816	0.302753
208	H	0.884996	0.580182	0.296749
209	N	0.794919	0.648584	0.331853
210	H	0.764146	0.647828	0.337217
211	C	0.183306	0.063895	0.377404
212	C	0.230857	0.090097	0.386593
213	C	0.261886	0.120951	0.35454
214	C	0.244232	0.123475	0.645908
215	C	0.196557	0.096348	0.635435
216	C	0.165111	0.06682	0.668966
217	H	0.162123	0.043423	0.402418
218	H	0.242338	0.088029	0.417621
219	H	0.266673	0.146105	0.622598
220	N	0.182943	0.100706	0.5938
221	H	0.205256	0.120934	0.571588
222	H	0.151058	0.082339	0.583978
223	C	0.113962	0.042265	0.661304
224	H	0.105167	0.017176	0.634077
225	H	0.106104	0.069159	0.650431
226	C	0.31147	0.152817	0.36521
227	H	0.320483	0.145958	0.398315
228	H	0.31654	0.188215	0.365746
229	C	0.925878	0.122245	0.375141
230	C	0.897653	0.141416	0.384633
231	C	0.8662	0.140086	0.352666
232	C	0.865034	0.120643	0.643845
233	C	0.894078	0.102217	0.633108
234	C	0.924329	0.1018	0.666523
235	H	0.946854	0.122601	0.400062
236	H	0.89893	0.154631	0.415734
237	H	0.842068	0.11948	0.620564
238	N	0.890863	0.084767	0.591327
239	H	0.870094	0.0858	0.569198
240	H	0.910549	0.072752	0.581316
241	C	0.951129	0.077294	0.658588
242	H	0.975814	0.094873	0.631527
243	H	0.925981	0.04199	0.647303
244	C	0.832912	0.156065	0.363383
245	H	0.838491	0.171137	0.396827
246	H	0.798443	0.124883	0.36295
247	C	0.868495	0.808468	0.377501
248	C	0.847137	0.760454	0.386863
249	C	0.847132	0.72917	0.355049
250	C	0.867539	0.747015	0.646491
251	C	0.888171	0.795147	0.635861
252	C	0.889854	0.826869	0.669149
253	H	0.869068	0.82985	0.402352
254	H	0.833367	0.748838	0.417818
255	H	0.867805	0.724372	0.62335
256	N	0.906395	0.808916	0.594319
257	H	0.904528	0.78641	0.572293
258	H	0.920083	0.841117	0.584404
259	C	0.916433	0.878556	0.661351
260	H	0.900525	0.887101	0.633784
261	H	0.951137	0.886839	0.65091
262	C	0.829104	0.679095	0.365839
263	H	0.813223	0.669987	0.398907
264	H	0.859101	0.674071	0.366478
265	C	0.612728	0.164578	0.625157
266	C	0.582829	0.18193	0.616401
267	C	0.545354	0.171226	0.644936
268	C	0.539368	0.143668	0.349634
269	C	0.569326	0.126016	0.359319
270	C	0.606687	0.136322	0.329598
271	H	0.638312	0.172006	0.602503
272	H	0.587728	0.201104	0.588098
273	H	0.511806	0.135371	0.370152
274	N	0.560217	0.099043	0.396424
275	H	0.534403	0.092523	0.415977
276	H	0.579005	0.085526	0.405014
277	C	0.636759	0.115137	0.336212
278	H	0.613701	0.077167	0.334837
279	H	0.651659	0.123512	0.369716
280	C	0.510721	0.185379	0.633877
281	H	0.477696	0.153074	0.628835
282	H	0.51931	0.205019	0.602579
283	C	0.820373	0.44878	0.625617
284	C	0.803201	0.401116	0.617097
285	C	0.813761	0.374093	0.645842
286	C	0.840949	0.395826	0.350536
287	C	0.858415	0.443853	0.359988
288	C	0.848272	0.471159	0.330039
289	H	0.81309	0.467104	0.602792
290	H	0.784331	0.386739	0.588767
291	H	0.849178	0.376382	0.371177
292	N	0.885059	0.461852	0.39709
293	H	0.891473	0.44238	0.416803
294	H	0.898441	0.494442	0.40552
295	C	0.86925	0.522829	0.336388
296	H	0.906803	0.537546	0.335
297	H	0.861012	0.529687	0.369836
298	C	0.799867	0.324887	0.634945
299	H	0.831872	0.323978	0.62993
300	H	0.78042	0.313749	0.603661
301	C	0.539176	0.374615	0.624638
302	C	0.586336	0.405004	0.616175
303	C	0.613073	0.442692	0.644993
304	C	0.591547	0.448384	0.349671
305	C	0.54401	0.417967	0.359033
306	C	0.517008	0.380385	0.329037
307	H	0.521047	0.348951	0.601757
308	H	0.600586	0.400339	0.587865
309	H	0.610786	0.476139	0.370368
310	N	0.526176	0.426879	0.396105
311	H	0.545433	0.452856	0.415841
312	H	0.493907	0.40781	0.404459
313	C	0.465888	0.349835	0.335323
314	H	0.451354	0.373065	0.333819
315	H	0.459038	0.334687	0.368794
316	C	0.661823	0.477864	0.634256
317	H	0.662931	0.511258	0.629431
318	H	0.672843	0.469469	0.602922
319	C	0.98588	0.036568	0.696542
320	C	0.957633	0.95502	0.69785
321	N	0.950109	0.991791	0.697464
322	N	0.920815	0.908372	0.700333
323	H	0.889985	0.907808	0.704587
324	N	0.976363	0.073638	0.697877
325	C	0.386928	0.187387	0.662422
326	N	0.424894	0.183106	0.668786
327	C	0.468257	0.220442	0.664176
328	N	0.473334	0.262745	0.653217
329	C	0.435891	0.26798	0.646734
330	N	0.393028	0.229816	0.650831
331	N	0.5066	0.213868	0.669991
332	H	0.53662	0.245753	0.671072
333	N	0.441219	0.311959	0.635072
334	H	0.409198	0.308163	0.629025
335	N	0.341587	0.148658	0.664602
336	H	0.34232	0.118318	0.670104
337	C	0.797785	0.197688	0.662382
338	N	0.802088	0.240343	0.669089
339	C	0.765133	0.246799	0.665158
340	N	0.723174	0.209569	0.654455
341	C	0.717886	0.166461	0.647679
342	N	0.755679	0.161352	0.651093
343	N	0.771786	0.292194	0.671125
344	H	0.74029	0.290668	0.672357
345	N	0.674275	0.127889	0.636084
346	H	0.677831	0.09919	0.63011
347	N	0.836281	0.190921	0.663457
348	H	0.86622	0.222136	0.668995
349	C	0.78781	0.602757	0.663131
350	N	0.745493	0.564391	0.669392
351	C	0.738941	0.520545	0.664829
352	N	0.775714	0.51539	0.654009
353	C	0.818455	0.553229	0.647635
354	N	0.823689	0.596578	0.651683
355	N	0.693962	0.481803	0.670457
356	H	0.695354	0.451422	0.671435
357	N	0.856624	0.547816	0.636087
358	H	0.884996	0.580182	0.630083
359	N	0.794919	0.648584	0.665185
360	H	0.764146	0.647828	0.67055
361	C	0.183306	0.063895	0.710737
362	C	0.230857	0.090097	0.719926
363	C	0.261886	0.120951	0.687873
364	C	0.244232	0.123475	0.979241
365	C	0.196557	0.096348	0.968767
366	C	0.165111	0.06682	0.0023
367	H	0.162123	0.043423	0.735755
368	H	0.242338	0.088029	0.750954
369	H	0.266673	0.146105	0.955931
370	N	0.182943	0.100706	0.927136
371	H	0.205256	0.120934	0.90492
372	H	0.151058	0.082339	0.917311
373	C	0.113962	0.042265	0.994637
374	H	0.105167	0.017176	0.96741
375	H	0.106104	0.069159	0.983764
376	C	0.31147	0.152817	0.698546
377	H	0.320483	0.145958	0.731648
378	H	0.31654	0.188215	0.699079
379	C	0.925878	0.122245	0.708474
380	C	0.897653	0.141416	0.717966
381	C	0.8662	0.140086	0.685999
382	C	0.865034	0.120643	0.977178
383	C	0.894078	0.102217	0.966444
384	C	0.924329	0.1018	0.999856
385	H	0.946854	0.122601	0.733395
386	H	0.89893	0.154631	0.749067
387	H	0.842068	0.11948	0.953897
388	N	0.890863	0.084767	0.92466
389	H	0.870094	0.0858	0.902534
390	H	0.910549	0.072752	0.914649
391	C	0.951129	0.077294	0.991925
392	H	0.975814	0.094873	0.96486
393	H	0.925981	0.04199	0.980639
394	C	0.832912	0.156065	0.696716
395	H	0.838491	0.171137	0.73016
396	H	0.798443	0.124883	0.696283
397	C	0.868495	0.808468	0.710837
398	C	0.847137	0.760454	0.720196
399	C	0.847132	0.72917	0.688382
400	C	0.867539	0.747015	0.979824
401	C	0.888171	0.795147	0.969197
402	C	0.889854	0.826869	0.002481
403	H	0.869068	0.82985	0.735688
404	H	0.833367	0.748838	0.751154
405	H	0.867805	0.724372	0.956683
406	N	0.906395	0.808916	0.927652
407	H	0.904528	0.78641	0.905626
408	H	0.920083	0.841117	0.917737
409	C	0.916433	0.878556	0.994687
410	H	0.900525	0.887101	0.967117
411	H	0.951137	0.886839	0.984243
412	C	0.829104	0.679095	0.699172
413	H	0.813223	0.669987	0.73224
414	H	0.859101	0.674071	0.699811
415	C	0.612728	0.164578	0.95849
416	C	0.582829	0.18193	0.949737
417	C	0.545354	0.171226	0.978269
418	C	0.539368	0.143668	0.682967
419	C	0.569326	0.126016	0.692652
420	C	0.606687	0.136322	0.662932
421	H	0.638312	0.172006	0.935836
422	H	0.587728	0.201104	0.921435
423	H	0.511806	0.135371	0.703485
424	N	0.560217	0.099043	0.729757
425	H	0.534403	0.092523	0.749313
426	H	0.579005	0.085526	0.738351
427	C	0.636759	0.115137	0.669545
428	H	0.613701	0.077167	0.66817
429	H	0.651659	0.123512	0.703049
430	C	0.510721	0.185379	0.96721
431	H	0.477696	0.153074	0.962168
432	H	0.51931	0.205019	0.935912
433	C	0.820373	0.44878	0.958949
434	C	0.803201	0.401116	0.950429
435	C	0.813761	0.374093	0.979175
436	C	0.840949	0.395826	0.683869
437	C	0.858415	0.443853	0.693321
438	C	0.848272	0.471159	0.663374
439	H	0.81309	0.467104	0.936128
440	H	0.784331	0.386739	0.922104
441	H	0.849178	0.376382	0.704513
442	N	0.885059	0.461852	0.730426
443	H	0.891473	0.44238	0.750135
444	H	0.898441	0.494442	0.738853
445	C	0.86925	0.522829	0.669721
446	H	0.906803	0.537546	0.668333
447	H	0.861012	0.529687	0.703169
448	C	0.799867	0.324887	0.968278
449	H	0.831872	0.323978	0.963263
450	H	0.78042	0.313749	0.936997
451	C	0.539176	0.374615	0.957971
452	C	0.586336	0.405004	0.949511
453	C	0.613073	0.442692	0.978326
454	C	0.591547	0.448384	0.683004
455	C	0.54401	0.417967	0.692366
456	C	0.517008	0.380385	0.662372
457	H	0.521047	0.348951	0.93509
458	H	0.600586	0.400339	0.921198
459	H	0.610786	0.476139	0.703701
460	N	0.526176	0.426879	0.729438
461	H	0.545433	0.452856	0.749177
462	H	0.493907	0.40781	0.737791
463	C	0.465888	0.349835	0.668656
464	H	0.451354	0.373065	0.667152
465	H	0.459038	0.334687	0.70213
466	C	0.661823	0.477864	0.967589
467	H	0.662931	0.511258	0.962767
468	H	0.672843	0.469469	0.936255
