data_C252H72N144O36_2018-02-15_10:37:55
#******************************************
#
# CIF file created by Zeo++
# Zeo++ is an open source package to
# analyze microporous materials
#
#*******************************************

_cell_length_a		29.1134   
_cell_length_b		29.1134   
_cell_length_c		29.7634   
_cell_angle_alpha		90   
_cell_angle_beta		90   
_cell_angle_gamma		120   

_symmetry_space_group_name_H-M		'P1'
_symmetry_Int_Tables_number		1
_symmetry_cell_setting		Monoclinic

loop_
_symmetry_equiv_pos_as_xyz
'+x,+y,+z'

loop_
_atom_site_label
_atom_site_type_symbol
_atom_site_fract_x
_atom_site_fract_y
_atom_site_fract_z
1	C	0.019885	0.307541	0.351979
2	C	0.05112	0.282963	0.016408
3	N	0.024864	0.229457	0.012648
4	H	0.036446	0.347707	0.354727
5	C	0.019885	0.307541	0.685311
6	C	0.05112	0.282963	0.349741
7	N	0.024864	0.229457	0.345982
8	H	0.036446	0.347707	0.688063
9	C	0.019885	0.307541	0.018645
10	C	0.05112	0.282963	0.683077
11	N	0.024864	0.229457	0.679314
12	H	0.036446	0.347707	0.021394
13	C	0.019883	0.807543	0.351976
14	C	0.051116	0.782964	0.016402
15	N	0.024861	0.72946	0.012638
16	H	0.036442	0.847709	0.354724
17	C	0.019883	0.807543	0.685308
18	C	0.051116	0.782964	0.349735
19	N	0.024861	0.72946	0.345972
20	H	0.036442	0.847709	0.688059
21	C	0.019883	0.807543	0.018641
22	C	0.051116	0.782964	0.68307
23	N	0.024861	0.72946	0.679304
24	H	0.036442	0.847709	0.021392
25	C	0.106783	0.310222	0.017565
26	C	0.106783	0.310222	0.350901
27	C	0.106783	0.310222	0.684233
28	C	0.10678	0.810224	0.01756
29	C	0.10678	0.810224	0.350894
30	C	0.10678	0.810224	0.684229
31	C	0.188082	0.391631	0.020776
32	N	0.134436	0.363894	0.018937
33	N	0.134437	0.283863	0.017871
34	C	0.188362	0.309566	0.019728
35	N	0.214319	0.363689	0.021296
36	C	0.300833	0.11547	0.02288
37	N	0.354468	0.143017	0.020292
38	C	0.383779	0.196446	0.017721
39	N	0.356639	0.223177	0.018401
40	C	0.302745	0.198933	0.020477
41	N	0.275684	0.144581	0.022206
42	C	0.276619	0.229151	0.020665
43	N	0.22252	0.202314	0.353383
44	C	0.191807	0.225378	0.35292
45	C	0.216179	0.281281	0.019993
46	N	0.270036	0.308122	0.020784
47	C	0.30149	0.28571	0.020885
48	H	0.151517	0.201698	0.352463
49	C	0.355573	0.319818	0.023061
50	O	0.374892	0.364015	0.006354
51	H	0.373245	0.318289	0.051069
52	C	0.274237	0.059307	0.024803
53	N	0.22051	0.032348	0.353236
54	C	0.19011	0.478604	0.352248
55	C	0.214747	0.447422	0.022202
56	N	0.267896	0.474095	0.028167
57	C	0.29892	0.027723	0.029968
58	H	0.15009	0.461823	0.348035
59	C	0.3514	0.046912	0.041176
60	O	0.372304	0.020563	0.032116
61	H	0.363364	0.066804	0.06981
62	C	0.439713	0.222846	0.015577
63	N	0.466298	0.27676	0.351851
64	C	0.471309	0.198197	0.011769
65	C	0.452657	0.145163	0.004145
66	O	0.435817	0.129763	0.966283
67	H	0.474218	0.130573	0.016915
68	C	0.188082	0.391631	0.354109
69	N	0.134436	0.363894	0.352271
70	N	0.134437	0.283863	0.351206
71	C	0.188362	0.309566	0.353061
72	N	0.214319	0.363689	0.35463
73	C	0.300833	0.11547	0.356212
74	N	0.354468	0.143017	0.353625
75	C	0.383779	0.196446	0.351055
76	N	0.356639	0.223177	0.351734
77	C	0.302745	0.198933	0.35381
78	N	0.275684	0.144581	0.35554
79	C	0.276619	0.229151	0.353998
80	N	0.22252	0.202314	0.686715
81	C	0.191807	0.225378	0.686252
82	C	0.216179	0.281281	0.353326
83	N	0.270036	0.308122	0.354116
84	C	0.30149	0.28571	0.35422
85	H	0.151517	0.201698	0.685795
86	C	0.355573	0.319818	0.356394
87	O	0.374892	0.364015	0.339689
88	H	0.373245	0.318289	0.384401
89	C	0.274237	0.059307	0.358138
90	N	0.22051	0.032348	0.686571
91	C	0.19011	0.478604	0.685583
92	C	0.214747	0.447422	0.355534
93	N	0.267896	0.474095	0.361501
94	C	0.29892	0.027723	0.363302
95	H	0.15009	0.461823	0.681367
96	C	0.3514	0.046912	0.37451
97	O	0.372304	0.020563	0.365449
98	H	0.363364	0.066804	0.403143
99	C	0.439713	0.222846	0.348912
100	N	0.466298	0.27676	0.685187
101	C	0.471309	0.198197	0.345101
102	C	0.452657	0.145163	0.337478
103	O	0.435817	0.129763	0.299615
104	H	0.474218	0.130573	0.350249
105	C	0.188082	0.391631	0.687444
106	N	0.134436	0.363894	0.685603
107	N	0.134437	0.283863	0.684538
108	C	0.188362	0.309566	0.686396
109	N	0.214319	0.363689	0.687962
110	C	0.300833	0.11547	0.689548
111	N	0.354468	0.143017	0.686961
112	C	0.383779	0.196446	0.684387
113	N	0.356639	0.223177	0.685069
114	C	0.302745	0.198933	0.687145
115	N	0.275684	0.144581	0.688872
116	C	0.276619	0.229151	0.68733
117	N	0.22252	0.202314	0.020049
118	C	0.191807	0.225378	0.019585
119	C	0.216179	0.281281	0.686662
120	N	0.270036	0.308122	0.687451
121	C	0.30149	0.28571	0.687552
122	H	0.151517	0.201698	0.019128
123	C	0.355573	0.319818	0.689729
124	O	0.374892	0.364015	0.673021
125	H	0.373245	0.318289	0.717737
126	C	0.274237	0.059307	0.69147
127	N	0.22051	0.032348	0.019904
128	C	0.19011	0.478604	0.018915
129	C	0.214747	0.447422	0.688869
130	N	0.267896	0.474095	0.694833
131	C	0.29892	0.027723	0.696637
132	H	0.15009	0.461823	0.014701
133	C	0.3514	0.046912	0.707842
134	O	0.372304	0.020563	0.698784
135	H	0.363364	0.066804	0.736478
136	C	0.439713	0.222846	0.682243
137	N	0.466298	0.27676	0.018519
138	C	0.471309	0.198197	0.678437
139	C	0.452657	0.145163	0.670813
140	O	0.435817	0.129763	0.632948
141	H	0.474218	0.130573	0.683581
142	C	0.188079	0.891631	0.020775
143	N	0.134433	0.863895	0.018935
144	N	0.134434	0.783864	0.017866
145	C	0.188358	0.809566	0.019725
146	N	0.214315	0.863689	0.021294
147	C	0.30083	0.615471	0.022875
148	N	0.354466	0.64302	0.020285
149	C	0.383776	0.696449	0.017713
150	N	0.356635	0.723177	0.018395
151	C	0.302741	0.698932	0.020471
152	N	0.275681	0.644583	0.022201
153	C	0.276614	0.72915	0.02066
154	N	0.222516	0.702315	0.353377
155	C	0.191803	0.725379	0.352913
156	C	0.216175	0.781282	0.019989
157	N	0.270032	0.808122	0.020781
158	C	0.301485	0.785709	0.020881
159	H	0.151512	0.701696	0.352456
160	C	0.355569	0.819818	0.023059
161	O	0.374889	0.864018	0.006353
162	H	0.373239	0.818287	0.051067
163	C	0.274236	0.559309	0.024799
164	N	0.220509	0.532346	0.353236
165	C	0.190109	0.978606	0.352251
166	C	0.214744	0.94742	0.022203
167	N	0.267896	0.974096	0.028169
168	C	0.298921	0.527726	0.029964
169	H	0.150092	0.961829	0.348035
170	C	0.351403	0.546918	0.041171
171	O	0.372306	0.520567	0.032112
172	H	0.363366	0.566809	0.069804
173	C	0.439709	0.722848	0.015569
174	N	0.466294	0.776761	0.351848
175	C	0.471304	0.698198	0.011757
176	C	0.452654	0.645166	0.00413
177	O	0.435809	0.629769	0.966267
178	H	0.474218	0.630574	0.016894
179	C	0.188079	0.891631	0.354109
180	N	0.134433	0.863895	0.352268
181	N	0.134434	0.783864	0.3512
182	C	0.188358	0.809566	0.353058
183	N	0.214315	0.863689	0.354627
184	C	0.30083	0.615471	0.356209
185	N	0.354466	0.64302	0.353619
186	C	0.383776	0.696449	0.351048
187	N	0.356635	0.723177	0.351727
188	C	0.302741	0.698932	0.353803
189	N	0.275681	0.644583	0.355534
190	C	0.276614	0.72915	0.353995
191	N	0.222516	0.702315	0.686712
192	C	0.191803	0.725379	0.686245
193	C	0.216175	0.781282	0.353323
194	N	0.270032	0.808122	0.354116
195	C	0.301485	0.785709	0.354213
196	H	0.151512	0.701696	0.685788
197	C	0.355569	0.819818	0.356394
198	O	0.374889	0.864018	0.339685
199	H	0.373239	0.818287	0.384401
200	C	0.274236	0.559309	0.358131
201	N	0.220509	0.532346	0.686568
202	C	0.190109	0.978606	0.685583
203	C	0.214744	0.94742	0.355537
204	N	0.267896	0.974096	0.361504
205	C	0.298921	0.527726	0.363298
206	H	0.150092	0.961829	0.68137
207	C	0.351403	0.546918	0.374503
208	O	0.372306	0.520567	0.365445
209	H	0.363366	0.566809	0.403139
210	C	0.439709	0.722848	0.348901
211	N	0.466294	0.776761	0.68518
212	C	0.471304	0.698198	0.345091
213	C	0.452654	0.645166	0.337465
214	O	0.435809	0.629769	0.2996
215	H	0.474218	0.630574	0.350229
216	C	0.188079	0.891631	0.687441
217	N	0.134433	0.863895	0.685603
218	N	0.134434	0.783864	0.684532
219	C	0.188358	0.809566	0.686393
220	N	0.214315	0.863689	0.687962
221	C	0.30083	0.615471	0.689541
222	N	0.354466	0.64302	0.686954
223	C	0.383776	0.696449	0.68438
224	N	0.356635	0.723177	0.685062
225	C	0.302741	0.698932	0.687139
226	N	0.275681	0.644583	0.688869
227	C	0.276614	0.72915	0.687327
228	N	0.222516	0.702315	0.020044
229	C	0.191803	0.725379	0.019579
230	C	0.216175	0.781282	0.686655
231	N	0.270032	0.808122	0.687448
232	C	0.301485	0.785709	0.687549
233	H	0.151512	0.701696	0.019122
234	C	0.355569	0.819818	0.689726
235	O	0.374889	0.864018	0.673021
236	H	0.373239	0.818287	0.717733
237	C	0.274236	0.559309	0.691466
238	N	0.220509	0.532346	0.019901
239	C	0.190109	0.978606	0.018916
240	C	0.214744	0.94742	0.688869
241	N	0.267896	0.974096	0.694836
242	C	0.298921	0.527726	0.69663
243	H	0.150092	0.961829	0.014701
244	C	0.351403	0.546918	0.707839
245	O	0.372306	0.520567	0.698777
246	H	0.363366	0.566809	0.736471
247	C	0.439709	0.722848	0.682237
248	N	0.466294	0.776761	0.018514
249	C	0.471304	0.698198	0.678423
250	C	0.452654	0.645166	0.670797
251	O	0.435809	0.629769	0.632935
252	H	0.474218	0.630574	0.683561
253	C	0.688084	0.391631	0.020776
254	N	0.634436	0.363894	0.018937
255	C	0.606783	0.310222	0.017565
256	N	0.634436	0.283863	0.017871
257	C	0.688362	0.309566	0.019728
258	N	0.714318	0.363689	0.021296
259	C	0.800833	0.11547	0.02288
260	N	0.854468	0.143017	0.020292
261	C	0.883779	0.196446	0.017721
262	N	0.85664	0.223177	0.018401
263	C	0.802744	0.198933	0.020477
264	N	0.775685	0.144581	0.022206
265	C	0.776618	0.229151	0.020665
266	N	0.72252	0.202314	0.353383
267	C	0.691807	0.225378	0.35292
268	C	0.71618	0.281281	0.019993
269	N	0.770035	0.308122	0.020784
270	C	0.80149	0.28571	0.020885
271	H	0.651516	0.201698	0.352463
272	C	0.855572	0.319818	0.023061
273	O	0.874891	0.364015	0.006354
274	H	0.873245	0.318289	0.051069
275	C	0.774235	0.059307	0.024803
276	N	0.72051	0.032348	0.353236
277	C	0.690108	0.478604	0.352248
278	C	0.714746	0.447422	0.022202
279	N	0.767896	0.474095	0.028167
280	C	0.798919	0.027723	0.029968
281	H	0.65009	0.461823	0.348035
282	C	0.851401	0.046912	0.041176
283	O	0.872304	0.020563	0.032116
284	H	0.863364	0.066804	0.06981
285	C	0.939712	0.222846	0.015577
286	N	0.966298	0.27676	0.351851
287	C	0.519883	0.307541	0.351979
288	C	0.551121	0.282963	0.016408
289	N	0.524863	0.229457	0.012648
290	C	0.971309	0.198197	0.011769
291	H	0.536446	0.347707	0.354727
292	C	0.952657	0.145163	0.004145
293	O	0.935817	0.129763	0.966283
294	H	0.974218	0.130573	0.016915
295	C	0.688084	0.391631	0.354109
296	N	0.634436	0.363894	0.352271
297	C	0.606783	0.310222	0.350901
298	N	0.634436	0.283863	0.351206
299	C	0.688362	0.309566	0.353061
300	N	0.714318	0.363689	0.35463
301	C	0.800833	0.11547	0.356212
302	N	0.854468	0.143017	0.353625
303	C	0.883779	0.196446	0.351055
304	N	0.85664	0.223177	0.351734
305	C	0.802744	0.198933	0.35381
306	N	0.775685	0.144581	0.35554
307	C	0.776618	0.229151	0.353998
308	N	0.72252	0.202314	0.686715
309	C	0.691807	0.225378	0.686252
310	C	0.71618	0.281281	0.353326
311	N	0.770035	0.308122	0.354116
312	C	0.80149	0.28571	0.35422
313	H	0.651516	0.201698	0.685795
314	C	0.855572	0.319818	0.356394
315	O	0.874891	0.364015	0.339689
316	H	0.873245	0.318289	0.384401
317	C	0.774235	0.059307	0.358138
318	N	0.72051	0.032348	0.686571
319	C	0.690108	0.478604	0.685583
320	C	0.714746	0.447422	0.355534
321	N	0.767896	0.474095	0.361501
322	C	0.798919	0.027723	0.363302
323	H	0.65009	0.461823	0.681367
324	C	0.851401	0.046912	0.37451
325	O	0.872304	0.020563	0.365449
326	H	0.863364	0.066804	0.403143
327	C	0.939712	0.222846	0.348912
328	N	0.966298	0.27676	0.685187
329	C	0.519883	0.307541	0.685311
330	C	0.551121	0.282963	0.349741
331	N	0.524863	0.229457	0.345982
332	C	0.971309	0.198197	0.345101
333	H	0.536446	0.347707	0.688063
334	C	0.952657	0.145163	0.337478
335	O	0.935817	0.129763	0.299615
336	H	0.974218	0.130573	0.350249
337	C	0.688084	0.391631	0.687444
338	N	0.634436	0.363894	0.685603
339	C	0.606783	0.310222	0.684233
340	N	0.634436	0.283863	0.684538
341	C	0.688362	0.309566	0.686396
342	N	0.714318	0.363689	0.687962
343	C	0.800833	0.11547	0.689548
344	N	0.854468	0.143017	0.686961
345	C	0.883779	0.196446	0.684387
346	N	0.85664	0.223177	0.685069
347	C	0.802744	0.198933	0.687145
348	N	0.775685	0.144581	0.688872
349	C	0.776618	0.229151	0.68733
350	N	0.72252	0.202314	0.020049
351	C	0.691807	0.225378	0.019585
352	C	0.71618	0.281281	0.686662
353	N	0.770035	0.308122	0.687451
354	C	0.80149	0.28571	0.687552
355	H	0.651516	0.201698	0.019128
356	C	0.855572	0.319818	0.689729
357	O	0.874891	0.364015	0.673021
358	H	0.873245	0.318289	0.717737
359	C	0.774235	0.059307	0.69147
360	N	0.72051	0.032348	0.019904
361	C	0.690108	0.478604	0.018915
362	C	0.714746	0.447422	0.688869
363	N	0.767896	0.474095	0.694833
364	C	0.798919	0.027723	0.696637
365	H	0.65009	0.461823	0.014701
366	C	0.851401	0.046912	0.707842
367	O	0.872304	0.020563	0.698784
368	H	0.863364	0.066804	0.736478
369	C	0.939712	0.222846	0.682243
370	N	0.966298	0.27676	0.018519
371	C	0.519883	0.307541	0.018645
372	C	0.551121	0.282963	0.683077
373	N	0.524863	0.229457	0.679314
374	C	0.971309	0.198197	0.678437
375	H	0.536446	0.347707	0.021394
376	C	0.952657	0.145163	0.670813
377	O	0.935817	0.129763	0.632948
378	H	0.974218	0.130573	0.683581
379	C	0.688079	0.891631	0.020775
380	N	0.634434	0.863895	0.018935
381	C	0.60678	0.810224	0.01756
382	N	0.634434	0.783864	0.017866
383	C	0.688358	0.809566	0.019725
384	N	0.714315	0.863689	0.021294
385	C	0.800831	0.615471	0.022875
386	N	0.854467	0.64302	0.020285
387	C	0.883775	0.696449	0.017713
388	N	0.856636	0.723177	0.018395
389	C	0.802742	0.698932	0.020471
390	N	0.77568	0.644583	0.022201
391	C	0.776616	0.72915	0.02066
392	N	0.722516	0.702315	0.353377
393	C	0.691803	0.725379	0.352913
394	C	0.716175	0.781282	0.019989
395	N	0.770033	0.808122	0.020781
396	C	0.801484	0.785709	0.020881
397	H	0.651513	0.701696	0.352456
398	C	0.85557	0.819818	0.023059
399	O	0.874887	0.864018	0.006353
400	H	0.873239	0.818287	0.051067
401	C	0.774238	0.559309	0.024799
402	N	0.720507	0.532346	0.353236
403	C	0.69011	0.978606	0.352251
404	C	0.714745	0.94742	0.022203
405	N	0.767896	0.974096	0.028169
406	C	0.798922	0.527726	0.029964
407	H	0.650092	0.961829	0.348035
408	C	0.851403	0.546918	0.041171
409	O	0.872307	0.520567	0.032112
410	H	0.863364	0.566809	0.069804
411	C	0.939711	0.722848	0.015569
412	N	0.966293	0.776761	0.351848
413	C	0.519882	0.807543	0.351976
414	C	0.551116	0.782964	0.016402
415	N	0.524861	0.72946	0.012638
416	C	0.971304	0.698198	0.011757
417	H	0.536443	0.847709	0.354724
418	C	0.952654	0.645166	0.00413
419	O	0.935808	0.629769	0.966267
420	H	0.974217	0.630574	0.016894
421	C	0.688079	0.891631	0.354109
422	N	0.634434	0.863895	0.352268
423	C	0.60678	0.810224	0.350894
424	N	0.634434	0.783864	0.3512
425	C	0.688358	0.809566	0.353058
426	N	0.714315	0.863689	0.354627
427	C	0.800831	0.615471	0.356209
428	N	0.854467	0.64302	0.353619
429	C	0.883775	0.696449	0.351048
430	N	0.856636	0.723177	0.351727
431	C	0.802742	0.698932	0.353803
432	N	0.77568	0.644583	0.355534
433	C	0.776616	0.72915	0.353995
434	N	0.722516	0.702315	0.686712
435	C	0.691803	0.725379	0.686245
436	C	0.716175	0.781282	0.353323
437	N	0.770033	0.808122	0.354116
438	C	0.801484	0.785709	0.354213
439	H	0.651513	0.701696	0.685788
440	C	0.85557	0.819818	0.356394
441	O	0.874887	0.864018	0.339685
442	H	0.873239	0.818287	0.384401
443	C	0.774238	0.559309	0.358131
444	N	0.720507	0.532346	0.686568
445	C	0.69011	0.978606	0.685583
446	C	0.714745	0.94742	0.355537
447	N	0.767896	0.974096	0.361504
448	C	0.798922	0.527726	0.363298
449	H	0.650092	0.961829	0.68137
450	C	0.851403	0.546918	0.374503
451	O	0.872307	0.520567	0.365445
452	H	0.863364	0.566809	0.403139
453	C	0.939711	0.722848	0.348901
454	N	0.966293	0.776761	0.68518
455	C	0.519882	0.807543	0.685308
456	C	0.551116	0.782964	0.349735
457	N	0.524861	0.72946	0.345972
458	C	0.971304	0.698198	0.345091
459	H	0.536443	0.847709	0.688059
460	C	0.952654	0.645166	0.337465
461	O	0.935808	0.629769	0.2996
462	H	0.974217	0.630574	0.350229
463	C	0.688079	0.891631	0.687441
464	N	0.634434	0.863895	0.685603
465	C	0.60678	0.810224	0.684229
466	N	0.634434	0.783864	0.684532
467	C	0.688358	0.809566	0.686393
468	N	0.714315	0.863689	0.687962
469	C	0.800831	0.615471	0.689541
470	N	0.854467	0.64302	0.686954
471	C	0.883775	0.696449	0.68438
472	N	0.856636	0.723177	0.685062
473	C	0.802742	0.698932	0.687139
474	N	0.77568	0.644583	0.688869
475	C	0.776616	0.72915	0.687327
476	N	0.722516	0.702315	0.020044
477	C	0.691803	0.725379	0.019579
478	C	0.716175	0.781282	0.686655
479	N	0.770033	0.808122	0.687448
480	C	0.801484	0.785709	0.687549
481	H	0.651513	0.701696	0.019122
482	C	0.85557	0.819818	0.689726
483	O	0.874887	0.864018	0.673021
484	H	0.873239	0.818287	0.717733
485	C	0.774238	0.559309	0.691466
486	N	0.720507	0.532346	0.019901
487	C	0.69011	0.978606	0.018916
488	C	0.714745	0.94742	0.688869
489	N	0.767896	0.974096	0.694836
490	C	0.798922	0.527726	0.69663
491	H	0.650092	0.961829	0.014701
492	C	0.851403	0.546918	0.707839
493	O	0.872307	0.520567	0.698777
494	H	0.863364	0.566809	0.736471
495	C	0.939711	0.722848	0.682237
496	N	0.966293	0.776761	0.018514
497	C	0.519882	0.807543	0.018641
498	C	0.551116	0.782964	0.68307
499	N	0.524861	0.72946	0.679304
500	C	0.971304	0.698198	0.678423
501	H	0.536443	0.847709	0.021392
502	C	0.952654	0.645166	0.670797
503	O	0.935808	0.629769	0.632935
504	H	0.974217	0.630574	0.683561
