data_C270H216N54_2018-02-15_10:37:45
#******************************************
#
# CIF file created by Zeo++
# Zeo++ is an open source package to
# analyze microporous materials
#
#*******************************************

_cell_length_a		30.2787   
_cell_length_b		30.2787   
_cell_length_c		29.5224   
_cell_angle_alpha		90   
_cell_angle_beta		90   
_cell_angle_gamma		120   

_symmetry_space_group_name_H-M		'P1'
_symmetry_Int_Tables_number		1
_symmetry_cell_setting		Monoclinic

loop_
_symmetry_equiv_pos_as_xyz
'+x,+y,+z'

loop_
_atom_site_label
_atom_site_type_symbol
_atom_site_fract_x
_atom_site_fract_y
_atom_site_fract_z
1	C	0.06764	0.535632	0.028849
2	C	0.039678	0.520236	0.321339
3	H	0.059563	0.529179	0.291465
4	C	0.039204	0.522959	0.069434
5	H	0.058715	0.533717	0.099477
6	C	0.06764	0.535632	0.362182
7	C	0.039678	0.520236	0.654672
8	H	0.059563	0.529179	0.624799
9	C	0.039204	0.522959	0.402768
10	H	0.058715	0.533717	0.43281
11	C	0.06764	0.535632	0.695515
12	C	0.039678	0.520236	0.988008
13	H	0.059563	0.529179	0.958132
14	C	0.039204	0.522959	0.736101
15	H	0.058715	0.533717	0.766143
16	N	0.14859	0.614805	0.021342
17	C	0.122369	0.562765	0.027228
18	N	0.147513	0.536249	0.019288
19	H	0.169421	0.464547	0.061828
20	N	0.14859	0.614805	0.354676
21	C	0.122369	0.562765	0.36056
22	N	0.147513	0.536249	0.35262
23	H	0.169421	0.464547	0.395161
24	N	0.14859	0.614805	0.688009
25	C	0.122369	0.562765	0.693896
26	N	0.147513	0.536249	0.685956
27	H	0.169421	0.464547	0.728497
28	C	0.197995	0.640066	0.006428
29	C	0.197005	0.559836	0.004646
30	N	0.219398	0.610843	0.998509
31	C	0.241589	0.51426	0.032676
32	C	0.230346	0.539876	0.99757
33	C	0.207702	0.492817	0.072864
34	H	0.220784	0.474008	0.096506
35	H	0.205855	0.523127	0.091229
36	C	0.253184	0.577135	0.250173
37	H	0.214551	0.571094	0.248975
38	C	0.23183	0.693102	0.333023
39	C	0.24181	0.730955	0.032576
40	H	0.218841	0.720506	0.060598
41	C	0.197995	0.640066	0.339759
42	C	0.197005	0.559836	0.33798
43	N	0.219398	0.610843	0.331842
44	C	0.241589	0.51426	0.36601
45	C	0.230346	0.539876	0.330902
46	C	0.207702	0.492817	0.406196
47	H	0.220784	0.474008	0.429839
48	H	0.205855	0.523127	0.424562
49	C	0.253184	0.577135	0.583505
50	H	0.214551	0.571094	0.58231
51	C	0.23183	0.693102	0.666358
52	C	0.24181	0.730955	0.365912
53	H	0.218841	0.720506	0.393931
54	C	0.197995	0.640066	0.673092
55	C	0.197005	0.559836	0.671313
56	N	0.219398	0.610843	0.665176
57	C	0.241589	0.51426	0.699343
58	C	0.230346	0.539876	0.664234
59	C	0.207702	0.492817	0.739533
60	H	0.220784	0.474008	0.763172
61	H	0.205855	0.523127	0.757895
62	C	0.253184	0.577135	0.916842
63	H	0.214551	0.571094	0.915643
64	C	0.23183	0.693102	0.999691
65	C	0.24181	0.730955	0.699245
66	H	0.218841	0.720506	0.727264
67	C	0.380169	0.562086	0.006563
68	N	0.405393	0.537889	0.021442
69	C	0.457435	0.563673	0.027346
70	N	0.483989	0.615339	0.019438
71	C	0.460437	0.641283	0.004816
72	N	0.409432	0.612712	0.998661
73	C	0.458158	0.822157	0.006692
74	N	0.482329	0.871611	0.021491
75	C	0.456535	0.897879	0.027319
76	N	0.404879	0.87271	0.019376
77	C	0.378966	0.823206	0.004785
78	N	0.407547	0.80077	0.998715
79	C	0.826079	0.375854	0.006093
80	N	0.875625	0.401112	0.020576
81	C	0.902013	0.453194	0.02623
82	N	0.876731	0.479687	0.01887
83	C	0.827116	0.456061	0.004578
84	N	0.80463	0.405059	0.998359
85	C	0.644307	0.454296	0.005879
86	N	0.61907	0.478542	0.020526
87	C	0.566987	0.452854	0.026187
88	N	0.540478	0.401096	0.018736
89	C	0.564058	0.375131	0.004263
90	N	0.615066	0.403655	0.998085
91	C	0.566026	0.194145	0.005879
92	N	0.541711	0.14465	0.020513
93	C	0.567374	0.118238	0.026203
94	N	0.619136	0.143422	0.018786
95	C	0.645143	0.192965	0.004314
96	N	0.616667	0.215495	0.998102
97	C	0.985489	0.493297	0.320188
98	C	0.956989	0.480388	0.361518
99	C	0.984798	0.495746	0.06984
100	C	0.959744	0.479286	0.275092
101	H	0.986595	0.491837	0.246799
102	H	0.936029	0.496752	0.270914
103	H	0.935717	0.437962	0.272605
104	C	0.959596	0.484644	0.115005
105	H	0.918086	0.463773	0.113162
106	H	0.97113	0.520347	0.132893
107	H	0.971224	0.461828	0.134972
108	C	0.484545	0.536047	0.028934
109	C	0.499909	0.523485	0.321405
110	C	0.526855	0.496241	0.320216
111	C	0.539796	0.480644	0.361528
112	C	0.524477	0.493095	0.069867
113	H	0.490951	0.534438	0.291545
114	C	0.497261	0.52029	0.069499
115	H	0.486535	0.529046	0.099556
116	C	0.540843	0.48453	0.2751
117	H	0.528282	0.498846	0.246827
118	H	0.523372	0.443351	0.2709
119	H	0.582162	0.501824	0.272595
120	C	0.535613	0.478989	0.115014
121	H	0.556484	0.45835	0.113138
122	H	0.499928	0.454822	0.132921
123	H	0.55845	0.513433	0.134977
124	C	0.484243	0.952604	0.028916
125	C	0.496814	0.980538	0.321391
126	C	0.524044	0.034728	0.320211
127	C	0.539599	0.063255	0.361528
128	C	0.527127	0.035477	0.069865
129	H	0.485874	0.960635	0.291527
130	C	0.499947	0.981069	0.069488
131	H	0.491149	0.961577	0.099543
132	C	0.535772	0.060438	0.275099
133	H	0.521481	0.033566	0.246821
134	H	0.576951	0.08416	0.270919
135	H	0.518461	0.08445	0.272585
136	C	0.541175	0.060708	0.115018
137	H	0.561806	0.10222	0.11315
138	H	0.565336	0.0492	0.132952
139	H	0.50671	0.049086	0.134952
140	C	0.327147	0.542946	0.333113
141	C	0.289215	0.51492	0.032561
142	C	0.264424	0.558723	0.293177
143	H	0.299606	0.502347	0.060582
144	C	0.31211	0.561312	0.295652
145	H	0.337474	0.578573	0.269657
146	H	0.257062	0.556515	0.221506
147	H	0.280129	0.61773	0.245752
148	C	0.477373	0.788342	0.333237
149	C	0.505266	0.778366	0.032776
150	C	0.505931	0.731405	0.032914
151	C	0.480443	0.694593	0.997746
152	C	0.461693	0.709859	0.293308
153	H	0.517737	0.801285	0.06083
154	C	0.459106	0.754958	0.295757
155	H	0.4419	0.763077	0.269726
156	C	0.527229	0.718904	0.073173
157	H	0.545957	0.750763	0.096856
158	H	0.555538	0.708905	0.062227
159	H	0.496852	0.686722	0.09146
160	C	0.443367	0.680227	0.250287
161	H	0.44939	0.647621	0.249127
162	H	0.46406	0.704733	0.221647
163	H	0.402785	0.666597	0.24579
164	C	0.288782	0.778568	0.032768
165	C	0.325668	0.789944	0.997658
166	C	0.310455	0.755896	0.293238
167	C	0.26533	0.708226	0.295625
168	H	0.257252	0.68292	0.269587
169	C	0.301222	0.812348	0.073033
170	H	0.26933	0.799211	0.09668
171	H	0.311239	0.850663	0.062089
172	H	0.333377	0.814148	0.091363
173	C	0.340167	0.767188	0.250264
174	H	0.372776	0.805812	0.249119
175	H	0.315717	0.763367	0.221575
176	H	0.353803	0.74023	0.245832
177	C	0.697341	0.473486	0.332563
178	C	0.735058	0.501123	0.032292
179	C	0.782612	0.501649	0.032594
180	C	0.793993	0.476247	0.997411
181	C	0.760145	0.457614	0.292856
182	H	0.724525	0.513532	0.060333
183	C	0.712511	0.455158	0.295159
184	H	0.687264	0.438027	0.26906
185	C	0.816246	0.5227	0.072986
186	H	0.80306	0.541363	0.096687
187	H	0.854623	0.551004	0.062199
188	H	0.817903	0.492203	0.091197
189	C	0.771568	0.439289	0.249891
190	H	0.810192	0.445292	0.248843
191	H	0.767856	0.459997	0.22121
192	H	0.744616	0.398709	0.24537
193	C	0.546902	0.22804	0.332519
194	C	0.519066	0.238011	0.032115
195	C	0.518498	0.285021	0.03233
196	C	0.543986	0.321829	0.997167
197	C	0.562682	0.306575	0.292678
198	H	0.506587	0.215061	0.06015
199	C	0.565235	0.261455	0.295069
200	H	0.582431	0.253343	0.269023
201	C	0.497304	0.29757	0.072636
202	H	0.478591	0.265718	0.096328
203	H	0.469009	0.307613	0.061747
204	H	0.527732	0.329739	0.090895
205	C	0.581008	0.336266	0.249685
206	H	0.574958	0.368856	0.248564
207	H	0.56034	0.311794	0.221021
208	H	0.621601	0.349933	0.245195
209	C	0.792354	0.32283	0.332628
210	C	0.782179	0.285074	0.032344
211	C	0.735162	0.23751	0.032536
212	C	0.698457	0.226151	0.997272
213	C	0.713806	0.260064	0.292758
214	H	0.805033	0.295584	0.060445
215	C	0.758957	0.30771	0.295158
216	H	0.767127	0.333005	0.269091
217	C	0.722489	0.203841	0.072912
218	H	0.754281	0.217006	0.096678
219	H	0.712451	0.165476	0.062117
220	H	0.690286	0.202159	0.091057
221	C	0.684167	0.248702	0.249733
222	H	0.651546	0.210079	0.248614
223	H	0.708661	0.252456	0.221102
224	H	0.670549	0.275662	0.245188
225	C	0.380169	0.562086	0.339894
226	N	0.405393	0.537889	0.354778
227	C	0.457435	0.563673	0.360678
228	N	0.483989	0.615339	0.352772
229	C	0.460437	0.641283	0.338147
230	N	0.409432	0.612712	0.331993
231	C	0.458158	0.822157	0.340026
232	N	0.482329	0.871611	0.354825
233	C	0.456535	0.897879	0.360651
234	N	0.404879	0.87271	0.352711
235	C	0.378966	0.823206	0.338118
236	N	0.407547	0.80077	0.332048
237	C	0.826079	0.375854	0.339423
238	N	0.875625	0.401112	0.353911
239	C	0.902013	0.453194	0.359564
240	N	0.876731	0.479687	0.352203
241	C	0.827116	0.456061	0.337912
242	N	0.80463	0.405059	0.331692
243	C	0.644307	0.454296	0.339213
244	N	0.61907	0.478542	0.35386
245	C	0.566987	0.452854	0.35952
246	N	0.540478	0.401096	0.352068
247	C	0.564058	0.375131	0.337596
248	N	0.615066	0.403655	0.331416
249	C	0.566026	0.194145	0.339213
250	N	0.541711	0.14465	0.353846
251	C	0.567374	0.118238	0.359537
252	N	0.619136	0.143422	0.352119
253	C	0.645143	0.192965	0.337646
254	N	0.616667	0.215495	0.331435
255	C	0.985489	0.493297	0.65352
256	C	0.956989	0.480388	0.694851
257	C	0.984798	0.495746	0.403175
258	C	0.959744	0.479286	0.608425
259	H	0.986595	0.491837	0.580132
260	H	0.936029	0.496752	0.604249
261	H	0.935717	0.437962	0.605939
262	C	0.959596	0.484644	0.44834
263	H	0.918086	0.463773	0.446494
264	H	0.97113	0.520347	0.466225
265	H	0.971224	0.461828	0.468305
266	C	0.484545	0.536047	0.362267
267	C	0.499909	0.523485	0.654739
268	C	0.526855	0.496241	0.65355
269	C	0.539796	0.480644	0.694861
270	C	0.524477	0.493095	0.403202
271	H	0.490951	0.534438	0.624877
272	C	0.497261	0.52029	0.402833
273	H	0.486535	0.529046	0.432891
274	C	0.540843	0.48453	0.608432
275	H	0.528282	0.498846	0.580162
276	H	0.523372	0.443351	0.604232
277	H	0.582162	0.501824	0.605929
278	C	0.535613	0.478989	0.448347
279	H	0.556484	0.45835	0.446471
280	H	0.499928	0.454822	0.466256
281	H	0.55845	0.513433	0.468312
282	C	0.484243	0.952604	0.36225
283	C	0.496814	0.980538	0.654726
284	C	0.524044	0.034728	0.653544
285	C	0.539599	0.063255	0.694861
286	C	0.527127	0.035477	0.403198
287	H	0.485874	0.960635	0.62486
288	C	0.499947	0.981069	0.402823
289	H	0.491149	0.961577	0.432878
290	C	0.535772	0.060438	0.608432
291	H	0.521481	0.033566	0.580155
292	H	0.576951	0.08416	0.604252
293	H	0.518461	0.08445	0.605919
294	C	0.541175	0.060708	0.448351
295	H	0.561806	0.10222	0.446484
296	H	0.565336	0.0492	0.466286
297	H	0.50671	0.049086	0.468285
298	C	0.327147	0.542946	0.666446
299	C	0.289215	0.51492	0.365895
300	C	0.264424	0.558723	0.62651
301	H	0.299606	0.502347	0.393917
302	C	0.31211	0.561312	0.628986
303	H	0.337474	0.578573	0.602992
304	H	0.257062	0.556515	0.554839
305	H	0.280129	0.61773	0.579085
306	C	0.477373	0.788342	0.666571
307	C	0.505266	0.778366	0.366111
308	C	0.505931	0.731405	0.366247
309	C	0.480443	0.694593	0.331079
310	C	0.461693	0.709859	0.626642
311	H	0.517737	0.801285	0.394165
312	C	0.459106	0.754958	0.629091
313	H	0.4419	0.763077	0.60306
314	C	0.527229	0.718904	0.406508
315	H	0.545957	0.750763	0.430192
316	H	0.555538	0.708905	0.39556
317	H	0.496852	0.686722	0.424796
318	C	0.443367	0.680227	0.583621
319	H	0.44939	0.647621	0.582462
320	H	0.46406	0.704733	0.554981
321	H	0.402785	0.666597	0.579122
322	C	0.288782	0.778568	0.366101
323	C	0.325668	0.789944	0.330992
324	C	0.310455	0.755896	0.626571
325	C	0.26533	0.708226	0.628959
326	H	0.257252	0.68292	0.602921
327	C	0.301222	0.812348	0.406366
328	H	0.26933	0.799211	0.430012
329	H	0.311239	0.850663	0.395421
330	H	0.333377	0.814148	0.424697
331	C	0.340167	0.767188	0.583597
332	H	0.372776	0.805812	0.582452
333	H	0.315717	0.763367	0.554907
334	H	0.353803	0.74023	0.579166
335	C	0.697341	0.473486	0.665897
336	C	0.735058	0.501123	0.365627
337	C	0.782612	0.501649	0.365929
338	C	0.793993	0.476247	0.330742
339	C	0.760145	0.457614	0.626188
340	H	0.724525	0.513532	0.393667
341	C	0.712511	0.455158	0.628492
342	H	0.687264	0.438027	0.602393
343	C	0.816246	0.5227	0.406318
344	H	0.80306	0.541363	0.430022
345	H	0.854623	0.551004	0.395533
346	H	0.817903	0.492203	0.424531
347	C	0.771568	0.439289	0.583224
348	H	0.810192	0.445292	0.582178
349	H	0.767856	0.459997	0.554544
350	H	0.744616	0.398709	0.578706
351	C	0.546902	0.22804	0.665853
352	C	0.519066	0.238011	0.365448
353	C	0.518498	0.285021	0.365664
354	C	0.543986	0.321829	0.3305
355	C	0.562682	0.306575	0.626012
356	H	0.506587	0.215061	0.393484
357	C	0.565235	0.261455	0.628404
358	H	0.582431	0.253343	0.602356
359	C	0.497304	0.29757	0.405969
360	H	0.478591	0.265718	0.429663
361	H	0.469009	0.307613	0.395083
362	H	0.527732	0.329739	0.424227
363	C	0.581008	0.336266	0.583018
364	H	0.574958	0.368856	0.581897
365	H	0.56034	0.311794	0.554355
366	H	0.621601	0.349933	0.57853
367	C	0.792354	0.32283	0.665961
368	C	0.782179	0.285074	0.365678
369	C	0.735162	0.23751	0.365871
370	C	0.698457	0.226151	0.330606
371	C	0.713806	0.260064	0.62609
372	H	0.805033	0.295584	0.393779
373	C	0.758957	0.30771	0.628492
374	H	0.767127	0.333005	0.602423
375	C	0.722489	0.203841	0.406247
376	H	0.754281	0.217006	0.430012
377	H	0.712451	0.165476	0.395452
378	H	0.690286	0.202159	0.424389
379	C	0.684167	0.248702	0.583068
380	H	0.651546	0.210079	0.581947
381	H	0.708661	0.252456	0.554436
382	H	0.670549	0.275662	0.578523
383	C	0.380169	0.562086	0.67323
384	N	0.405393	0.537889	0.688111
385	C	0.457435	0.563673	0.694011
386	N	0.483989	0.615339	0.686105
387	C	0.460437	0.641283	0.671479
388	N	0.409432	0.612712	0.665328
389	C	0.458158	0.822157	0.673359
390	N	0.482329	0.871611	0.688158
391	C	0.456535	0.897879	0.693988
392	N	0.404879	0.87271	0.686044
393	C	0.378966	0.823206	0.671452
394	N	0.407547	0.80077	0.665382
395	C	0.826079	0.375854	0.67276
396	N	0.875625	0.401112	0.687244
397	C	0.902013	0.453194	0.692897
398	N	0.876731	0.479687	0.685536
399	C	0.827116	0.456061	0.671246
400	N	0.80463	0.405059	0.665027
401	C	0.644307	0.454296	0.672546
402	N	0.61907	0.478542	0.687193
403	C	0.566987	0.452854	0.692853
404	N	0.540478	0.401096	0.685404
405	C	0.564058	0.375131	0.67093
406	N	0.615066	0.403655	0.664749
407	C	0.566026	0.194145	0.672546
408	N	0.541711	0.14465	0.687179
409	C	0.567374	0.118238	0.69287
410	N	0.619136	0.143422	0.685455
411	C	0.645143	0.192965	0.670981
412	N	0.616667	0.215495	0.664769
413	C	0.985489	0.493297	0.986856
414	C	0.956989	0.480388	0.028185
415	C	0.984798	0.495746	0.736508
416	C	0.959744	0.479286	0.941758
417	H	0.986595	0.491837	0.913465
418	H	0.936029	0.496752	0.937582
419	H	0.935717	0.437962	0.939272
420	C	0.959596	0.484644	0.781673
421	H	0.918086	0.463773	0.779831
422	H	0.97113	0.520347	0.799558
423	H	0.971224	0.461828	0.801638
424	C	0.484545	0.536047	0.695603
425	C	0.499909	0.523485	0.988072
426	C	0.526855	0.496241	0.986883
427	C	0.539796	0.480644	0.028193
428	C	0.524477	0.493095	0.736535
429	H	0.490951	0.534438	0.958214
430	C	0.497261	0.52029	0.736166
431	H	0.486535	0.529046	0.766224
432	C	0.540843	0.48453	0.941769
433	H	0.528282	0.498846	0.913495
434	H	0.523372	0.443351	0.937568
435	H	0.582162	0.501824	0.939262
436	C	0.535613	0.478989	0.78168
437	H	0.556484	0.45835	0.779804
438	H	0.499928	0.454822	0.799589
439	H	0.55845	0.513433	0.801645
440	C	0.484243	0.952604	0.695583
441	C	0.496814	0.980538	0.988059
442	C	0.524044	0.034728	0.98688
443	C	0.539599	0.063255	0.028195
444	C	0.527127	0.035477	0.736531
445	H	0.485874	0.960635	0.958193
446	C	0.499947	0.981069	0.736155
447	H	0.491149	0.961577	0.766211
448	C	0.535772	0.060438	0.941765
449	H	0.521481	0.033566	0.913488
450	H	0.576951	0.08416	0.937585
451	H	0.518461	0.08445	0.939252
452	C	0.541175	0.060708	0.781687
453	H	0.561806	0.10222	0.779817
454	H	0.565336	0.0492	0.799619
455	H	0.50671	0.049086	0.801621
456	C	0.327147	0.542946	0.999782
457	C	0.289215	0.51492	0.699228
458	C	0.264424	0.558723	0.959843
459	H	0.299606	0.502347	0.72725
460	C	0.31211	0.561312	0.962319
461	H	0.337474	0.578573	0.936325
462	H	0.257062	0.556515	0.888175
463	H	0.280129	0.61773	0.912418
464	C	0.477373	0.788342	0.999904
465	C	0.505266	0.778366	0.699444
466	C	0.505931	0.731405	0.69958
467	C	0.480443	0.694593	0.664413
468	C	0.461693	0.709859	0.959975
469	H	0.517737	0.801285	0.727498
470	C	0.459106	0.754958	0.962424
471	H	0.4419	0.763077	0.936393
472	C	0.527229	0.718904	0.739841
473	H	0.545957	0.750763	0.763524
474	H	0.555538	0.708905	0.728893
475	H	0.496852	0.686722	0.758129
476	C	0.443367	0.680227	0.916954
477	H	0.44939	0.647621	0.915795
478	H	0.46406	0.704733	0.888314
479	H	0.402785	0.666597	0.912459
480	C	0.288782	0.778568	0.699434
481	C	0.325668	0.789944	0.664325
482	C	0.310455	0.755896	0.959904
483	C	0.26533	0.708226	0.962292
484	H	0.257252	0.68292	0.936254
485	C	0.301222	0.812348	0.739702
486	H	0.26933	0.799211	0.763348
487	H	0.311239	0.850663	0.728758
488	H	0.333377	0.814148	0.75803
489	C	0.340167	0.767188	0.91693
490	H	0.372776	0.805812	0.915788
491	H	0.315717	0.763367	0.888243
492	H	0.353803	0.74023	0.912499
493	C	0.697341	0.473486	0.99923
494	C	0.735058	0.501123	0.69896
495	C	0.782612	0.501649	0.699261
496	C	0.793993	0.476247	0.664075
497	C	0.760145	0.457614	0.959525
498	H	0.724525	0.513532	0.727
499	C	0.712511	0.455158	0.961825
500	H	0.687264	0.438027	0.935726
501	C	0.816246	0.5227	0.739651
502	H	0.80306	0.541363	0.763355
503	H	0.854623	0.551004	0.728866
504	H	0.817903	0.492203	0.757864
505	C	0.771568	0.439289	0.916557
506	H	0.810192	0.445292	0.915511
507	H	0.767856	0.459997	0.887877
508	H	0.744616	0.398709	0.912039
509	C	0.546902	0.22804	0.999186
510	C	0.519066	0.238011	0.698784
511	C	0.518498	0.285021	0.698997
512	C	0.543986	0.321829	0.663834
513	C	0.562682	0.306575	0.959345
514	H	0.506587	0.215061	0.726817
515	C	0.565235	0.261455	0.961736
516	H	0.582431	0.253343	0.935692
517	C	0.497304	0.29757	0.739302
518	H	0.478591	0.265718	0.762996
519	H	0.469009	0.307613	0.728416
520	H	0.527732	0.329739	0.757563
521	C	0.581008	0.336266	0.916354
522	H	0.574958	0.368856	0.915233
523	H	0.56034	0.311794	0.887688
524	H	0.621601	0.349933	0.911863
525	C	0.792354	0.32283	0.999294
526	C	0.782179	0.285074	0.699011
527	C	0.735162	0.23751	0.699204
528	C	0.698457	0.226151	0.663939
529	C	0.713806	0.260064	0.959426
530	H	0.805033	0.295584	0.727112
531	C	0.758957	0.30771	0.961825
532	H	0.767127	0.333005	0.93576
533	C	0.722489	0.203841	0.73958
534	H	0.754281	0.217006	0.763345
535	H	0.712451	0.165476	0.728785
536	H	0.690286	0.202159	0.757726
537	C	0.684167	0.248702	0.916401
538	H	0.651546	0.210079	0.91528
539	H	0.708661	0.252456	0.887769
540	H	0.670549	0.275662	0.911856
