data_C270H216N54_2018-02-15_10:38:40
#******************************************
#
# CIF file created by Zeo++
# Zeo++ is an open source package to
# analyze microporous materials
#
#*******************************************

_cell_length_a		30.4384   
_cell_length_b		30.4384   
_cell_length_c		29.6864   
_cell_angle_alpha		90   
_cell_angle_beta		90   
_cell_angle_gamma		120   

_symmetry_space_group_name_H-M		'P1'
_symmetry_Int_Tables_number		1
_symmetry_cell_setting		Monoclinic

loop_
_symmetry_equiv_pos_as_xyz
'+x,+y,+z'

loop_
_atom_site_label
_atom_site_type_symbol
_atom_site_fract_x
_atom_site_fract_y
_atom_site_fract_z
1	C	0.034574	0.531652	0.057004
2	C	0.062432	0.529653	0.353172
3	C	0.035228	0.501736	0.314055
4	H	0.053076	0.552103	0.085082
5	C	0.063121	0.502222	0.272108
6	H	0.051781	0.517313	0.243925
7	H	0.054422	0.46371	0.26409
8	C	0.034574	0.531652	0.390337
9	C	0.062432	0.529653	0.686507
10	C	0.035228	0.501736	0.647388
11	H	0.053076	0.552103	0.418414
12	C	0.063121	0.502222	0.605442
13	H	0.051781	0.517313	0.577258
14	H	0.054422	0.46371	0.597422
15	C	0.034574	0.531652	0.723668
16	C	0.062432	0.529653	0.019839
17	C	0.035228	0.501736	0.980722
18	H	0.053076	0.552103	0.751749
19	C	0.063121	0.502222	0.938774
20	H	0.051781	0.517313	0.910592
21	H	0.054422	0.46371	0.930757
22	C	0.116621	0.557524	0.022288
23	H	0.104164	0.525469	0.274009
24	C	0.116621	0.557524	0.355621
25	H	0.104164	0.525469	0.607342
26	C	0.116621	0.557524	0.688956
27	H	0.104164	0.525469	0.940677
28	N	0.141958	0.609345	0.017943
29	N	0.143508	0.532498	0.018635
30	H	0.162077	0.47676	0.065976
31	H	0.158579	0.683611	0.064796
32	N	0.141958	0.609345	0.351275
33	N	0.143508	0.532498	0.351969
34	H	0.162077	0.47676	0.399308
35	H	0.158579	0.683611	0.398129
36	N	0.141958	0.609345	0.68461
37	N	0.143508	0.532498	0.685301
38	H	0.162077	0.47676	0.732642
39	H	0.158579	0.683611	0.731463
40	C	0.192819	0.636446	0.009328
41	C	0.194334	0.557449	0.009948
42	N	0.215774	0.60832	0.005315
43	C	0.376804	0.559148	0.00937
44	N	0.403874	0.535355	0.017979
45	C	0.455692	0.561815	0.022289
46	N	0.48077	0.61373	0.018628
47	C	0.455833	0.639625	0.009963
48	N	0.404955	0.610228	0.005346
49	C	0.45424	0.820407	0.00933
50	N	0.477979	0.871275	0.017917
51	C	0.451443	0.896559	0.022274
52	N	0.399537	0.869651	0.018651
53	C	0.373699	0.818817	0.009999
54	N	0.40315	0.797399	0.005346
55	C	0.821502	0.370888	0.009928
56	N	0.872322	0.396769	0.018631
57	C	0.899163	0.448668	0.022317
58	N	0.873821	0.475151	0.017993
59	C	0.822962	0.451373	0.009359
60	N	0.80003	0.400293	0.00532
61	C	0.642211	0.453164	0.00998
62	N	0.61636	0.47814	0.018673
63	C	0.564455	0.453099	0.022328
64	N	0.537923	0.401283	0.017965
65	C	0.561676	0.374173	0.009343
66	N	0.612758	0.402292	0.005341
67	C	0.560152	0.191767	0.009999
68	N	0.535145	0.140937	0.018688
69	C	0.560151	0.114034	0.022291
70	N	0.611962	0.139281	0.017904
71	C	0.639092	0.190144	0.009307
72	N	0.611019	0.213161	0.005334
73	C	0.95336	0.475094	0.353172
74	C	0.981208	0.504961	0.057003
75	H	0.962697	0.506877	0.08509
76	C	0.980575	0.474396	0.314056
77	C	0.952685	0.446969	0.272113
78	H	0.911642	0.429177	0.274009
79	H	0.96139	0.417155	0.264113
80	H	0.964028	0.473387	0.24392
81	C	0.538092	0.480936	0.353185
82	C	0.508209	0.478918	0.057004
83	C	0.481538	0.505613	0.057
84	C	0.483566	0.535491	0.353175
85	C	0.511499	0.536205	0.31407
86	H	0.46107	0.503656	0.08507
87	H	0.506257	0.458467	0.085083
88	C	0.538823	0.508872	0.314076
89	C	0.511037	0.563625	0.272122
90	H	0.487787	0.581416	0.274013
91	H	0.495963	0.537202	0.243932
92	H	0.549554	0.593438	0.264121
93	C	0.566266	0.508417	0.272144
94	H	0.584056	0.485166	0.274046
95	H	0.596086	0.546933	0.264153
96	H	0.539861	0.493349	0.243941
97	C	0.532299	0.059834	0.353159
98	C	0.534406	0.031977	0.056943
99	C	0.507735	0.97861	0.056939
100	C	0.477814	0.950754	0.353135
101	C	0.476994	0.977965	0.314066
102	H	0.509745	0.960105	0.084991
103	H	0.554901	0.050482	0.085002
104	C	0.5043	0.032621	0.314075
105	C	0.449497	0.950075	0.272148
106	H	0.431741	0.909036	0.274029
107	H	0.47586	0.961448	0.243909
108	H	0.419643	0.958747	0.264228
109	C	0.504663	0.060512	0.272168
110	H	0.527893	0.101557	0.274068
111	H	0.466124	0.051787	0.264239
112	H	0.519699	0.049194	0.243928
113	C	0.323566	0.539205	0.00374
114	C	0.310416	0.562517	0.30253
115	C	0.264674	0.562373	0.302896
116	C	0.22853	0.538598	0.004272
117	C	0.23592	0.505674	0.033983
118	H	0.260236	0.584231	0.279046
119	H	0.336413	0.584671	0.278596
120	C	0.283765	0.506016	0.033748
121	C	0.197111	0.475845	0.069164
122	H	0.212437	0.490234	0.102604
123	H	0.186542	0.435983	0.067064
124	C	0.29365	0.476604	0.0687
125	H	0.329711	0.477852	0.064953
126	H	0.264585	0.436639	0.066905
127	H	0.293113	0.491095	0.102195
128	C	0.474311	0.787228	0.003635
129	C	0.450996	0.750738	0.302444
130	C	0.451053	0.705094	0.302862
131	C	0.474734	0.692681	0.004285
132	C	0.507564	0.732943	0.034082
133	H	0.429209	0.678805	0.278999
134	H	0.428904	0.754619	0.278469
135	C	0.507278	0.780472	0.033809
136	C	0.537221	0.72388	0.069383
137	H	0.536242	0.687894	0.066249
138	H	0.522728	0.724832	0.102771
139	H	0.577107	0.753124	0.06738
140	C	0.536572	0.819713	0.068835
141	H	0.535422	0.854572	0.065019
142	H	0.576527	0.830543	0.067212
143	H	0.521899	0.804671	0.102285
144	C	0.226055	0.689681	0.003635
145	C	0.262584	0.702833	0.302483
146	C	0.308253	0.748504	0.302933
147	C	0.320655	0.784618	0.004336
148	C	0.28033	0.777255	0.034024
149	H	0.334556	0.752916	0.279099
150	H	0.258719	0.676851	0.278526
151	C	0.232776	0.729464	0.033722
152	C	0.289341	0.816018	0.069268
153	H	0.325365	0.850987	0.066194
154	H	0.288251	0.800578	0.102689
155	H	0.260147	0.826716	0.067132
156	C	0.193461	0.719589	0.068652
157	H	0.182696	0.748758	0.066948
158	H	0.208407	0.719946	0.102145
159	C	0.69525	0.471976	0.004295
160	C	0.707605	0.448221	0.302891
161	C	0.753145	0.447963	0.302588
162	C	0.789657	0.471312	0.00375
163	C	0.783096	0.504559	0.033722
164	H	0.756983	0.425827	0.278625
165	H	0.68128	0.426328	0.279074
166	C	0.735599	0.504912	0.033979
167	C	0.822423	0.534012	0.06864
168	H	0.857231	0.532756	0.064882
169	H	0.807423	0.519559	0.102151
170	H	0.833323	0.573973	0.066811
171	C	0.72665	0.534782	0.069144
172	H	0.690696	0.533864	0.065973
173	H	0.75594	0.574637	0.067008
174	H	0.727613	0.520427	0.102592
175	C	0.541387	0.226048	0.00441
176	C	0.56504	0.262091	0.302942
177	C	0.565109	0.307797	0.302547
178	C	0.541664	0.320929	0.003652
179	C	0.50859	0.281149	0.03373
180	H	0.587184	0.333758	0.278555
181	H	0.586965	0.257692	0.279137
182	C	0.508368	0.233363	0.034059
183	C	0.479107	0.291003	0.06863
184	H	0.480177	0.326967	0.064743
185	H	0.493687	0.290676	0.102135
186	H	0.439183	0.261812	0.066916
187	C	0.478609	0.194596	0.069295
188	H	0.479711	0.159649	0.066256
189	H	0.438707	0.183855	0.067117
190	H	0.492913	0.210049	0.102721
191	C	0.787328	0.317842	0.004262
192	C	0.751267	0.305428	0.3028
193	C	0.705516	0.259835	0.302448
194	C	0.692341	0.223307	0.003601
195	C	0.732072	0.230031	0.033749
196	H	0.679562	0.255951	0.27845
197	H	0.755702	0.331737	0.278967
198	C	0.779884	0.277559	0.034039
199	C	0.722137	0.190772	0.068755
200	H	0.686131	0.155911	0.064925
201	H	0.722502	0.205794	0.102215
202	H	0.75127	0.179954	0.067115
203	C	0.81861	0.28661	0.069333
204	H	0.853615	0.322597	0.066213
205	H	0.829254	0.257371	0.067311
206	H	0.803161	0.285635	0.102725
207	C	0.192819	0.636446	0.342662
208	C	0.194334	0.557449	0.343282
209	N	0.215774	0.60832	0.338647
210	C	0.376804	0.559148	0.342703
211	N	0.403874	0.535355	0.351313
212	C	0.455692	0.561815	0.355621
213	N	0.48077	0.61373	0.351963
214	C	0.455833	0.639625	0.343295
215	N	0.404955	0.610228	0.33868
216	C	0.45424	0.820407	0.342662
217	N	0.477979	0.871275	0.351249
218	C	0.451443	0.896559	0.355607
219	N	0.399537	0.869651	0.351983
220	C	0.373699	0.818817	0.343332
221	N	0.40315	0.797399	0.33868
222	C	0.821502	0.370888	0.343262
223	N	0.872322	0.396769	0.351966
224	C	0.899163	0.448668	0.355651
225	N	0.873821	0.475151	0.351326
226	C	0.822962	0.451373	0.342692
227	N	0.80003	0.400293	0.338654
228	C	0.642211	0.453164	0.343312
229	N	0.61636	0.47814	0.352006
230	C	0.564455	0.453099	0.355661
231	N	0.537923	0.401283	0.351299
232	C	0.561676	0.374173	0.342676
233	N	0.612758	0.402292	0.338674
234	C	0.560152	0.191767	0.343332
235	N	0.535145	0.140937	0.35202
236	C	0.560151	0.114034	0.355624
237	N	0.611962	0.139281	0.351238
238	C	0.639092	0.190144	0.342639
239	N	0.611019	0.213161	0.338667
240	C	0.95336	0.475094	0.686503
241	C	0.981208	0.504961	0.390337
242	H	0.962697	0.506877	0.418424
243	C	0.980575	0.474396	0.647391
244	C	0.952685	0.446969	0.605446
245	H	0.911642	0.429177	0.607342
246	H	0.96139	0.417155	0.597446
247	H	0.964028	0.473387	0.577251
248	C	0.538092	0.480936	0.68652
249	C	0.508209	0.478918	0.390337
250	C	0.481538	0.505613	0.390334
251	C	0.483566	0.535491	0.68651
252	C	0.511499	0.536205	0.647401
253	H	0.46107	0.503656	0.418404
254	H	0.506257	0.458467	0.418417
255	C	0.538823	0.508872	0.647411
256	C	0.511037	0.563625	0.605456
257	H	0.487787	0.581416	0.607346
258	H	0.495963	0.537202	0.577265
259	H	0.549554	0.593438	0.597452
260	C	0.566266	0.508417	0.605476
261	H	0.584056	0.485166	0.607379
262	H	0.596086	0.546933	0.597486
263	H	0.539861	0.493349	0.577275
264	C	0.532299	0.059834	0.68649
265	C	0.534406	0.031977	0.390277
266	C	0.507735	0.97861	0.390273
267	C	0.477814	0.950754	0.68647
268	C	0.476994	0.977965	0.647398
269	H	0.509745	0.960105	0.418323
270	H	0.554901	0.050482	0.418337
271	C	0.5043	0.032621	0.647408
272	C	0.449497	0.950075	0.60548
273	H	0.431741	0.909036	0.607363
274	H	0.47586	0.961448	0.577241
275	H	0.419643	0.958747	0.59756
276	C	0.504663	0.060512	0.605503
277	H	0.527893	0.101557	0.607403
278	H	0.466124	0.051787	0.59757
279	H	0.519699	0.049194	0.577261
280	C	0.323566	0.539205	0.337074
281	C	0.310416	0.562517	0.635864
282	C	0.264674	0.562373	0.636231
283	C	0.22853	0.538598	0.337606
284	C	0.23592	0.505674	0.367317
285	H	0.260236	0.584231	0.612378
286	H	0.336413	0.584671	0.61193
287	C	0.283765	0.506016	0.367081
288	C	0.197111	0.475845	0.402498
289	H	0.212437	0.490234	0.435937
290	H	0.186542	0.435983	0.400396
291	C	0.29365	0.476604	0.402033
292	H	0.329711	0.477852	0.398287
293	H	0.264585	0.436639	0.400237
294	H	0.293113	0.491095	0.43553
295	C	0.474311	0.787228	0.336969
296	C	0.450996	0.750738	0.635776
297	C	0.451053	0.705094	0.636194
298	C	0.474734	0.692681	0.337619
299	C	0.507564	0.732943	0.367414
300	H	0.429209	0.678805	0.612331
301	H	0.428904	0.754619	0.611802
302	C	0.507278	0.780472	0.367141
303	C	0.537221	0.72388	0.402717
304	H	0.536242	0.687894	0.399584
305	H	0.522728	0.724832	0.436106
306	H	0.577107	0.753124	0.400712
307	C	0.536572	0.819713	0.402167
308	H	0.535422	0.854572	0.398351
309	H	0.576527	0.830543	0.400544
310	H	0.521899	0.804671	0.435617
311	C	0.226055	0.689681	0.336969
312	C	0.262584	0.702833	0.635817
313	C	0.308253	0.748504	0.636265
314	C	0.320655	0.784618	0.33767
315	C	0.28033	0.777255	0.367357
316	H	0.334556	0.752916	0.612432
317	H	0.258719	0.676851	0.61186
318	C	0.232776	0.729464	0.367054
319	C	0.289341	0.816018	0.402602
320	H	0.325365	0.850987	0.399527
321	H	0.288251	0.800578	0.436021
322	H	0.260147	0.826716	0.400466
323	C	0.193461	0.719589	0.401986
324	H	0.182696	0.748758	0.400281
325	H	0.208407	0.719946	0.435479
326	C	0.69525	0.471976	0.33763
327	C	0.707605	0.448221	0.636224
328	C	0.753145	0.447963	0.635921
329	C	0.789657	0.471312	0.337084
330	C	0.783096	0.504559	0.367054
331	H	0.756983	0.425827	0.611957
332	H	0.68128	0.426328	0.612409
333	C	0.735599	0.504912	0.367313
334	C	0.822423	0.534012	0.401972
335	H	0.857231	0.532756	0.398216
336	H	0.807423	0.519559	0.435486
337	H	0.833323	0.573973	0.400143
338	C	0.72665	0.534782	0.402477
339	H	0.690696	0.533864	0.399308
340	H	0.75594	0.574637	0.400342
341	H	0.727613	0.520427	0.435927
342	C	0.541387	0.226048	0.337744
343	C	0.56504	0.262091	0.636275
344	C	0.565109	0.307797	0.635881
345	C	0.541664	0.320929	0.336986
346	C	0.50859	0.281149	0.367064
347	H	0.587184	0.333758	0.61189
348	H	0.586965	0.257692	0.612469
349	C	0.508368	0.233363	0.367394
350	C	0.479107	0.291003	0.401962
351	H	0.480177	0.326967	0.398075
352	H	0.493687	0.290676	0.435469
353	H	0.439183	0.261812	0.400251
354	C	0.478609	0.194596	0.402629
355	H	0.479711	0.159649	0.399587
356	H	0.438707	0.183855	0.40045
357	H	0.492913	0.210049	0.436055
358	C	0.787328	0.317842	0.337592
359	C	0.751267	0.305428	0.636133
360	C	0.705516	0.259835	0.63578
361	C	0.692341	0.223307	0.336936
362	C	0.732072	0.230031	0.367081
363	H	0.679562	0.255951	0.611782
364	H	0.755702	0.331737	0.612301
365	C	0.779884	0.277559	0.36737
366	C	0.722137	0.190772	0.402087
367	H	0.686131	0.155911	0.39826
368	H	0.722502	0.205794	0.435546
369	H	0.75127	0.179954	0.40045
370	C	0.81861	0.28661	0.402666
371	H	0.853615	0.322597	0.399547
372	H	0.829254	0.257371	0.400645
373	H	0.803161	0.285635	0.436058
374	C	0.192819	0.636446	0.675993
375	C	0.194334	0.557449	0.676613
376	N	0.215774	0.60832	0.671981
377	C	0.376804	0.559148	0.676037
378	N	0.403874	0.535355	0.684644
379	C	0.455692	0.561815	0.688956
380	N	0.48077	0.61373	0.685294
381	C	0.455833	0.639625	0.67663
382	N	0.404955	0.610228	0.672012
383	C	0.45424	0.820407	0.675997
384	N	0.477979	0.871275	0.684583
385	C	0.451443	0.896559	0.688942
386	N	0.399537	0.869651	0.685317
387	C	0.373699	0.818817	0.676667
388	N	0.40315	0.797399	0.672012
389	C	0.821502	0.370888	0.676593
390	N	0.872322	0.396769	0.685297
391	C	0.899163	0.448668	0.688982
392	N	0.873821	0.475151	0.684661
393	C	0.822962	0.451373	0.676027
394	N	0.80003	0.400293	0.671985
395	C	0.642211	0.453164	0.676647
396	N	0.61636	0.47814	0.685341
397	C	0.564455	0.453099	0.688993
398	N	0.537923	0.401283	0.68463
399	C	0.561676	0.374173	0.67601
400	N	0.612758	0.402292	0.672008
401	C	0.560152	0.191767	0.676664
402	N	0.535145	0.140937	0.685355
403	C	0.560151	0.114034	0.688959
404	N	0.611962	0.139281	0.68457
405	C	0.639092	0.190144	0.675973
406	N	0.611019	0.213161	0.672002
407	C	0.95336	0.475094	0.019839
408	C	0.981208	0.504961	0.723668
409	H	0.962697	0.506877	0.751755
410	C	0.980575	0.474396	0.980722
411	C	0.952685	0.446969	0.93878
412	H	0.911642	0.429177	0.940677
413	H	0.96139	0.417155	0.93078
414	H	0.964028	0.473387	0.910586
415	C	0.538092	0.480936	0.019853
416	C	0.508209	0.478918	0.723668
417	C	0.481538	0.505613	0.723668
418	C	0.483566	0.535491	0.019843
419	C	0.511499	0.536205	0.980736
420	H	0.46107	0.503656	0.751735
421	H	0.506257	0.458467	0.751749
422	C	0.538823	0.508872	0.980742
423	C	0.511037	0.563625	0.938787
424	H	0.487787	0.581416	0.94068
425	H	0.495963	0.537202	0.910599
426	H	0.549554	0.593438	0.930787
427	C	0.566266	0.508417	0.938811
428	H	0.584056	0.485166	0.940714
429	H	0.596086	0.546933	0.930821
430	H	0.539861	0.493349	0.910606
431	C	0.532299	0.059834	0.019825
432	C	0.534406	0.031977	0.723608
433	C	0.507735	0.97861	0.723604
434	C	0.477814	0.950754	0.019803
435	C	0.476994	0.977965	0.980732
436	H	0.509745	0.960105	0.751658
437	H	0.554901	0.050482	0.751668
438	C	0.5043	0.032621	0.980742
439	C	0.449497	0.950075	0.938814
440	H	0.431741	0.909036	0.940697
441	H	0.47586	0.961448	0.910576
442	H	0.419643	0.958747	0.930895
443	C	0.504663	0.060512	0.938834
444	H	0.527893	0.101557	0.940734
445	H	0.466124	0.051787	0.930905
446	H	0.519699	0.049194	0.910596
447	C	0.323566	0.539205	0.670405
448	C	0.310416	0.562517	0.969195
449	C	0.264674	0.562373	0.969562
450	C	0.22853	0.538598	0.670937
451	C	0.23592	0.505674	0.700648
452	H	0.260236	0.584231	0.945713
453	H	0.336413	0.584671	0.945262
454	C	0.283765	0.506016	0.700415
455	C	0.197111	0.475845	0.735829
456	H	0.212437	0.490234	0.769272
457	H	0.186542	0.435983	0.73373
458	C	0.29365	0.476604	0.735367
459	H	0.329711	0.477852	0.731618
460	H	0.264585	0.436639	0.733572
461	H	0.293113	0.491095	0.768861
462	C	0.474311	0.787228	0.6703
463	C	0.450996	0.750738	0.969111
464	C	0.451053	0.705094	0.969529
465	C	0.474734	0.692681	0.670954
466	C	0.507564	0.732943	0.700749
467	H	0.429209	0.678805	0.945666
468	H	0.428904	0.754619	0.945137
469	C	0.507278	0.780472	0.700476
470	C	0.537221	0.72388	0.736048
471	H	0.536242	0.687894	0.732915
472	H	0.522728	0.724832	0.769437
473	H	0.577107	0.753124	0.734047
474	C	0.536572	0.819713	0.735502
475	H	0.535422	0.854572	0.731686
476	H	0.576527	0.830543	0.733878
477	H	0.521899	0.804671	0.768952
478	C	0.226055	0.689681	0.670304
479	C	0.262584	0.702833	0.969151
480	C	0.308253	0.748504	0.969599
481	C	0.320655	0.784618	0.671005
482	C	0.28033	0.777255	0.700692
483	H	0.334556	0.752916	0.945767
484	H	0.258719	0.676851	0.945191
485	C	0.232776	0.729464	0.700388
486	C	0.289341	0.816018	0.735933
487	H	0.325365	0.850987	0.732861
488	H	0.288251	0.800578	0.769356
489	H	0.260147	0.826716	0.733798
490	C	0.193461	0.719589	0.73532
491	H	0.182696	0.748758	0.733616
492	H	0.208407	0.719946	0.76881
493	C	0.69525	0.471976	0.670964
494	C	0.707605	0.448221	0.969559
495	C	0.753145	0.447963	0.969252
496	C	0.789657	0.471312	0.670415
497	C	0.783096	0.504559	0.700388
498	H	0.756983	0.425827	0.945292
499	H	0.68128	0.426328	0.94574
500	C	0.735599	0.504912	0.700644
501	C	0.822423	0.534012	0.735307
502	H	0.857231	0.532756	0.731547
503	H	0.807423	0.519559	0.768817
504	H	0.833323	0.573973	0.733478
505	C	0.72665	0.534782	0.735809
506	H	0.690696	0.533864	0.732639
507	H	0.75594	0.574637	0.733676
508	H	0.727613	0.520427	0.769258
509	C	0.541387	0.226048	0.671075
510	C	0.56504	0.262091	0.969609
511	C	0.565109	0.307797	0.969215
512	C	0.541664	0.320929	0.670317
513	C	0.50859	0.281149	0.700395
514	H	0.587184	0.333758	0.945221
515	H	0.586965	0.257692	0.945804
516	C	0.508368	0.233363	0.700725
517	C	0.479107	0.291003	0.735297
518	H	0.480177	0.326967	0.731409
519	H	0.493687	0.290676	0.7688
520	H	0.439183	0.261812	0.733582
521	C	0.478609	0.194596	0.73596
522	H	0.479711	0.159649	0.732922
523	H	0.438707	0.183855	0.733784
524	H	0.492913	0.210049	0.769386
525	C	0.787328	0.317842	0.670927
526	C	0.751267	0.305428	0.969468
527	C	0.705516	0.259835	0.969114
528	C	0.692341	0.223307	0.670267
529	C	0.732072	0.230031	0.700415
530	H	0.679562	0.255951	0.945117
531	H	0.755702	0.331737	0.945632
532	C	0.779884	0.277559	0.700705
533	C	0.722137	0.190772	0.735421
534	H	0.686131	0.155911	0.731591
535	H	0.722502	0.205794	0.768881
536	H	0.75127	0.179954	0.733781
537	C	0.81861	0.28661	0.736001
538	H	0.853615	0.322597	0.732878
539	H	0.829254	0.257371	0.733976
540	H	0.803161	0.285635	0.76939
