data_C324H216N72_2018-02-15_10:39:54
#******************************************
#
# CIF file created by Zeo++
# Zeo++ is an open source package to
# analyze microporous materials
#
#*******************************************

_cell_length_a		29.2046   
_cell_length_b		29.2046   
_cell_length_c		29.4892   
_cell_angle_alpha		90   
_cell_angle_beta		90   
_cell_angle_gamma		120   

_symmetry_space_group_name_H-M		'P1'
_symmetry_Int_Tables_number		1
_symmetry_cell_setting		Monoclinic

loop_
_symmetry_equiv_pos_as_xyz
'+x,+y,+z'

loop_
_atom_site_label
_atom_site_type_symbol
_atom_site_fract_x
_atom_site_fract_y
_atom_site_fract_z
1	C	0.123593	0.313961	0.00688
2	H	0.131558	0.245794	0.007822
3	H	0.131558	0.390092	0.007843
4	C	0.039128	0.27174	0.050295
5	C	0.068061	0.286192	0.009046
6	N	0.040557	0.272425	0.302741
7	C	0.064395	0.284375	0.09551
8	H	0.034871	0.269615	0.122533
9	H	0.089012	0.327128	0.099326
10	H	0.089008	0.266234	0.099328
11	C	0.123593	0.313961	0.340212
12	H	0.131558	0.245794	0.341155
13	H	0.131558	0.390092	0.341175
14	C	0.039128	0.27174	0.383628
15	C	0.068061	0.286192	0.342379
16	N	0.040557	0.272425	0.636076
17	C	0.064395	0.284375	0.428845
18	H	0.034871	0.269615	0.455868
19	H	0.089012	0.327128	0.43266
20	H	0.089008	0.266234	0.432663
21	C	0.123593	0.313961	0.673548
22	H	0.131558	0.245794	0.674487
23	H	0.131558	0.390092	0.674507
24	C	0.039128	0.27174	0.716964
25	C	0.068061	0.286192	0.675715
26	N	0.040557	0.272425	0.969408
27	C	0.064395	0.284375	0.762177
28	H	0.034871	0.269615	0.7892
29	H	0.089012	0.327128	0.765992
30	H	0.089008	0.266234	0.765995
31	C	0.123593	0.813961	0.00688
32	H	0.131559	0.745797	0.007822
33	H	0.131559	0.890092	0.007843
34	C	0.039131	0.771742	0.050295
35	C	0.068062	0.786193	0.009046
36	N	0.040559	0.772426	0.302741
37	C	0.064395	0.784374	0.09551
38	H	0.034869	0.769615	0.122533
39	H	0.089012	0.827127	0.099326
40	H	0.089008	0.766234	0.099328
41	C	0.123593	0.813961	0.340212
42	H	0.131559	0.745797	0.341155
43	H	0.131559	0.890092	0.341175
44	C	0.039131	0.771742	0.383628
45	C	0.068062	0.786193	0.342379
46	N	0.040559	0.772426	0.636076
47	C	0.064395	0.784374	0.428845
48	H	0.034869	0.769615	0.455868
49	H	0.089012	0.827127	0.43266
50	H	0.089008	0.766234	0.432663
51	C	0.123593	0.813961	0.673548
52	H	0.131559	0.745797	0.674487
53	H	0.131559	0.890092	0.674507
54	C	0.039131	0.771742	0.716964
55	C	0.068062	0.786193	0.675715
56	N	0.040559	0.772426	0.969408
57	C	0.064395	0.784374	0.762177
58	H	0.034869	0.769615	0.7892
59	H	0.089012	0.827127	0.765992
60	H	0.089008	0.766234	0.765995
61	C	0.151823	0.369828	0.007039
62	C	0.207691	0.398061	0.006876
63	C	0.235326	0.369828	0.007029
64	C	0.207689	0.313961	0.006876
65	C	0.151821	0.286322	0.007002
66	C	0.235451	0.286192	0.009044
67	C	0.237295	0.284375	0.095509
68	H	0.194541	0.266231	0.099327
69	C	0.235459	0.453592	0.009042
70	C	0.237276	0.457258	0.095506
71	H	0.194522	0.432637	0.09932
72	C	0.151823	0.369828	0.340372
73	C	0.207691	0.398061	0.340209
74	C	0.235326	0.369828	0.340362
75	C	0.207689	0.313961	0.340209
76	C	0.151821	0.286322	0.340334
77	C	0.235451	0.286192	0.342379
78	C	0.237295	0.284375	0.428841
79	H	0.194541	0.266231	0.43266
80	C	0.235459	0.453592	0.342376
81	C	0.237276	0.457258	0.428838
82	H	0.194522	0.432637	0.432653
83	C	0.151823	0.369828	0.673704
84	C	0.207691	0.398061	0.673541
85	C	0.235326	0.369828	0.673697
86	C	0.207689	0.313961	0.673541
87	C	0.151821	0.286322	0.67367
88	C	0.235451	0.286192	0.675711
89	C	0.237295	0.284375	0.762177
90	H	0.194541	0.266231	0.765995
91	C	0.235459	0.453592	0.675708
92	C	0.237276	0.457258	0.762173
93	H	0.194522	0.432637	0.765988
94	C	0.151823	0.869829	0.007039
95	C	0.20769	0.898059	0.006876
96	C	0.235327	0.869829	0.007029
97	C	0.207689	0.813961	0.006876
98	C	0.151822	0.786324	0.007002
99	C	0.235452	0.786193	0.009044
100	C	0.237295	0.784374	0.095509
101	H	0.194541	0.76623	0.099327
102	C	0.235458	0.953591	0.009042
103	C	0.237277	0.95726	0.095506
104	H	0.194524	0.932639	0.09932
105	C	0.151823	0.869829	0.340372
106	C	0.20769	0.898059	0.340209
107	C	0.235327	0.869829	0.340362
108	C	0.207689	0.813961	0.340209
109	C	0.151822	0.786324	0.340334
110	C	0.235452	0.786193	0.342379
111	C	0.237295	0.784374	0.428841
112	H	0.194541	0.76623	0.43266
113	C	0.235458	0.953591	0.342376
114	C	0.237277	0.95726	0.428838
115	H	0.194524	0.932639	0.432653
116	C	0.151823	0.869829	0.673704
117	C	0.20769	0.898059	0.673541
118	C	0.235327	0.869829	0.673697
119	C	0.207689	0.813961	0.673541
120	C	0.151822	0.786324	0.67367
121	C	0.235452	0.786193	0.675711
122	C	0.237295	0.784374	0.762177
123	H	0.194541	0.76623	0.765995
124	C	0.235458	0.953591	0.675708
125	C	0.237277	0.95726	0.762173
126	H	0.194524	0.932639	0.765988
127	H	0.250101	0.127216	0.008636
128	C	0.249929	0.271739	0.050295
129	N	0.249193	0.272427	0.302741
130	H	0.252062	0.269619	0.122533
131	H	0.255429	0.327128	0.099323
132	C	0.24991	0.482523	0.05029
133	N	0.249225	0.481095	0.302737
134	H	0.25203	0.486781	0.122529
135	H	0.25542	0.432649	0.099326
136	H	0.250101	0.127216	0.341969
137	C	0.249929	0.271739	0.383628
138	N	0.249193	0.272427	0.636076
139	H	0.252062	0.269619	0.455868
140	H	0.255429	0.327128	0.432656
141	C	0.24991	0.482523	0.383625
142	N	0.249225	0.481095	0.63607
143	H	0.25203	0.486781	0.455861
144	H	0.25542	0.432649	0.43266
145	H	0.250101	0.127216	0.675301
146	C	0.249929	0.271739	0.716964
147	N	0.249193	0.272427	0.969408
148	H	0.252062	0.269619	0.7892
149	H	0.255429	0.327128	0.765992
150	C	0.24991	0.482523	0.716957
151	N	0.249225	0.481095	0.969405
152	H	0.25203	0.486781	0.789197
153	H	0.25542	0.432649	0.765995
154	H	0.250102	0.627217	0.008636
155	C	0.24993	0.771742	0.050295
156	N	0.249192	0.772426	0.302741
157	H	0.252062	0.769619	0.122533
158	H	0.255429	0.827127	0.099323
159	C	0.249912	0.982525	0.05029
160	N	0.249224	0.981094	0.302737
161	H	0.252032	0.986783	0.122529
162	H	0.25542	0.932647	0.099326
163	H	0.250102	0.627217	0.341969
164	C	0.24993	0.771742	0.383628
165	N	0.249192	0.772426	0.636076
166	H	0.252062	0.769619	0.455868
167	H	0.255429	0.827127	0.432656
168	C	0.249912	0.982525	0.383625
169	N	0.249224	0.981094	0.63607
170	H	0.252032	0.986783	0.455861
171	H	0.25542	0.932647	0.43266
172	H	0.250102	0.627217	0.675301
173	C	0.24993	0.771742	0.716964
174	N	0.249192	0.772426	0.969408
175	H	0.252062	0.769619	0.7892
176	H	0.255429	0.827127	0.765992
177	C	0.249912	0.982525	0.716957
178	N	0.249224	0.981094	0.969405
179	H	0.252032	0.986783	0.789197
180	H	0.25542	0.932647	0.765995
181	H	0.275854	0.390091	0.007829
182	C	0.40238	0.203355	0.008869
183	C	0.374165	0.147485	0.008861
184	C	0.318295	0.119271	0.008861
185	C	0.290641	0.147486	0.008884
186	C	0.318296	0.203355	0.008875
187	C	0.374165	0.23101	0.008893
188	H	0.394435	0.27155	0.008646
189	H	0.394435	0.127215	0.008616
190	C	0.290543	0.231109	0.341487
191	N	0.276824	0.244847	0.047754
192	C	0.276006	0.245614	0.3007
193	H	0.28521	0.236395	0.269847
194	C	0.290541	0.063765	0.341477
195	N	0.276802	0.03631	0.047746
196	C	0.276038	0.034719	0.300692
197	H	0.285257	0.053139	0.269838
198	C	0.457886	0.231109	0.341484
199	N	0.485343	0.244848	0.047751
200	C	0.48693	0.245612	0.300697
201	H	0.468511	0.236393	0.269844
202	H	0.275854	0.390091	0.341162
203	C	0.40238	0.203355	0.342203
204	C	0.374165	0.147485	0.342193
205	C	0.318295	0.119271	0.342193
206	C	0.290641	0.147486	0.342217
207	C	0.318296	0.203355	0.34221
208	C	0.374165	0.23101	0.342227
209	H	0.394435	0.27155	0.341979
210	H	0.394435	0.127215	0.341949
211	C	0.290543	0.231109	0.674823
212	N	0.276824	0.244847	0.381088
213	C	0.276006	0.245614	0.634035
214	H	0.28521	0.236395	0.60318
215	C	0.290541	0.063765	0.674813
216	N	0.276802	0.03631	0.381078
217	C	0.276038	0.034719	0.634025
218	H	0.285257	0.053139	0.603173
219	C	0.457886	0.231109	0.674819
220	N	0.485343	0.244848	0.381085
221	C	0.48693	0.245612	0.634032
222	H	0.468511	0.236393	0.603176
223	H	0.275854	0.390091	0.674497
224	C	0.40238	0.203355	0.675535
225	C	0.374165	0.147485	0.675528
226	C	0.318295	0.119271	0.675528
227	C	0.290641	0.147486	0.675552
228	C	0.318296	0.203355	0.675542
229	C	0.374165	0.23101	0.675559
230	H	0.394435	0.27155	0.675314
231	H	0.394435	0.127215	0.675281
232	C	0.290543	0.231109	0.008155
233	N	0.276824	0.244847	0.71442
234	C	0.276006	0.245614	0.967367
235	H	0.28521	0.236395	0.936515
236	C	0.290541	0.063765	0.008145
237	N	0.276802	0.03631	0.714413
238	C	0.276038	0.034719	0.96736
239	H	0.285257	0.053139	0.936505
240	C	0.457886	0.231109	0.008151
241	N	0.485343	0.244848	0.714417
242	C	0.48693	0.245612	0.967364
243	H	0.468511	0.236393	0.936512
244	H	0.275855	0.890092	0.007829
245	C	0.40238	0.703356	0.008869
246	C	0.374165	0.647485	0.008861
247	C	0.318295	0.61927	0.008861
248	C	0.29064	0.647485	0.008884
249	C	0.318297	0.703356	0.008875
250	C	0.374165	0.731009	0.008893
251	H	0.394437	0.771552	0.008646
252	H	0.394436	0.627217	0.008616
253	C	0.290543	0.731108	0.341487
254	N	0.276824	0.744848	0.047754
255	C	0.276007	0.745615	0.3007
256	H	0.28521	0.736395	0.269847
257	C	0.290542	0.563766	0.341477
258	N	0.276802	0.536311	0.047746
259	C	0.276039	0.534721	0.300692
260	H	0.285257	0.553138	0.269838
261	C	0.457886	0.731108	0.341484
262	N	0.485341	0.744848	0.047751
263	C	0.48693	0.745611	0.300697
264	H	0.468511	0.736395	0.269844
265	H	0.275855	0.890092	0.341162
266	C	0.40238	0.703356	0.342203
267	C	0.374165	0.647485	0.342193
268	C	0.318295	0.61927	0.342193
269	C	0.29064	0.647485	0.342217
270	C	0.318297	0.703356	0.34221
271	C	0.374165	0.731009	0.342227
272	H	0.394437	0.771552	0.341979
273	H	0.394436	0.627217	0.341949
274	C	0.290543	0.731108	0.674823
275	N	0.276824	0.744848	0.381088
276	C	0.276007	0.745615	0.634035
277	H	0.28521	0.736395	0.60318
278	C	0.290542	0.563766	0.674813
279	N	0.276802	0.536311	0.381078
280	C	0.276039	0.534721	0.634025
281	H	0.285257	0.553138	0.603173
282	C	0.457886	0.731108	0.674819
283	N	0.485341	0.744848	0.381085
284	C	0.48693	0.745611	0.634032
285	H	0.468511	0.736395	0.603176
286	H	0.275855	0.890092	0.674497
287	C	0.40238	0.703356	0.675535
288	C	0.374165	0.647485	0.675528
289	C	0.318295	0.61927	0.675528
290	C	0.29064	0.647485	0.675552
291	C	0.318297	0.703356	0.675542
292	C	0.374165	0.731009	0.675559
293	H	0.394437	0.771552	0.675314
294	H	0.394436	0.627217	0.675281
295	C	0.290543	0.731108	0.008155
296	N	0.276824	0.744848	0.71442
297	C	0.276007	0.745615	0.967367
298	H	0.28521	0.736395	0.936515
299	C	0.290542	0.563766	0.008145
300	N	0.276802	0.536311	0.714413
301	C	0.276039	0.534721	0.96736
302	H	0.285257	0.553138	0.936505
303	C	0.457886	0.731108	0.008151
304	N	0.485341	0.744848	0.714417
305	C	0.48693	0.745611	0.967364
306	H	0.468511	0.736395	0.936512
307	C	0.623592	0.313961	0.00688
308	C	0.651823	0.369828	0.007039
309	C	0.70769	0.398061	0.006876
310	C	0.735327	0.369828	0.007029
311	C	0.707688	0.313961	0.006876
312	C	0.651821	0.286322	0.007002
313	H	0.775855	0.390091	0.007829
314	H	0.631557	0.245794	0.007822
315	H	0.631559	0.390092	0.007843
316	C	0.90238	0.203355	0.008869
317	C	0.874165	0.147485	0.008861
318	C	0.818293	0.119271	0.008861
319	C	0.79064	0.147486	0.008884
320	C	0.818294	0.203355	0.008875
321	C	0.874166	0.23101	0.008893
322	H	0.750099	0.127216	0.008636
323	H	0.894436	0.27155	0.008646
324	H	0.894436	0.127215	0.008616
325	C	0.790544	0.231109	0.341487
326	N	0.776824	0.244847	0.047754
327	C	0.749927	0.271739	0.050295
328	C	0.735451	0.286192	0.009044
329	N	0.749192	0.272427	0.302741
330	C	0.776006	0.245614	0.3007
331	H	0.785209	0.236395	0.269847
332	C	0.737296	0.284375	0.095509
333	H	0.752062	0.269619	0.122533
334	H	0.694541	0.266231	0.099327
335	H	0.75543	0.327128	0.099323
336	C	0.79054	0.063765	0.341477
337	N	0.776803	0.03631	0.047746
338	C	0.749911	0.482523	0.05029
339	C	0.735459	0.453592	0.009042
340	N	0.749224	0.481095	0.302737
341	C	0.776038	0.034719	0.300692
342	H	0.785258	0.053139	0.269838
343	C	0.737275	0.457258	0.095506
344	H	0.752029	0.486781	0.122529
345	H	0.755421	0.432649	0.099326
346	H	0.694521	0.432637	0.09932
347	C	0.957884	0.231109	0.341484
348	N	0.985339	0.244848	0.047751
349	C	0.539128	0.27174	0.050295
350	C	0.56806	0.286192	0.009046
351	N	0.540557	0.272425	0.302741
352	C	0.98693	0.245612	0.300697
353	H	0.968511	0.236393	0.269844
354	C	0.564395	0.284375	0.09551
355	H	0.534871	0.269615	0.122533
356	H	0.589011	0.327128	0.099326
357	H	0.589007	0.266234	0.099328
358	C	0.623592	0.313961	0.340212
359	C	0.651823	0.369828	0.340372
360	C	0.70769	0.398061	0.340209
361	C	0.735327	0.369828	0.340362
362	C	0.707688	0.313961	0.340209
363	C	0.651821	0.286322	0.340334
364	H	0.775855	0.390091	0.341162
365	H	0.631557	0.245794	0.341155
366	H	0.631559	0.390092	0.341175
367	C	0.90238	0.203355	0.342203
368	C	0.874165	0.147485	0.342193
369	C	0.818293	0.119271	0.342193
370	C	0.79064	0.147486	0.342217
371	C	0.818294	0.203355	0.34221
372	C	0.874166	0.23101	0.342227
373	H	0.750099	0.127216	0.341969
374	H	0.894436	0.27155	0.341979
375	H	0.894436	0.127215	0.341949
376	C	0.790544	0.231109	0.674823
377	N	0.776824	0.244847	0.381088
378	C	0.749927	0.271739	0.383628
379	C	0.735451	0.286192	0.342379
380	N	0.749192	0.272427	0.636076
381	C	0.776006	0.245614	0.634035
382	H	0.785209	0.236395	0.60318
383	C	0.737296	0.284375	0.428841
384	H	0.752062	0.269619	0.455868
385	H	0.694541	0.266231	0.43266
386	H	0.75543	0.327128	0.432656
387	C	0.79054	0.063765	0.674813
388	N	0.776803	0.03631	0.381078
389	C	0.749911	0.482523	0.383625
390	C	0.735459	0.453592	0.342376
391	N	0.749224	0.481095	0.63607
392	C	0.776038	0.034719	0.634025
393	H	0.785258	0.053139	0.603173
394	C	0.737275	0.457258	0.428838
395	H	0.752029	0.486781	0.455861
396	H	0.755421	0.432649	0.43266
397	H	0.694521	0.432637	0.432653
398	C	0.957884	0.231109	0.674819
399	N	0.985339	0.244848	0.381085
400	C	0.539128	0.27174	0.383628
401	C	0.56806	0.286192	0.342379
402	N	0.540557	0.272425	0.636076
403	C	0.98693	0.245612	0.634032
404	H	0.968511	0.236393	0.603176
405	C	0.564395	0.284375	0.428845
406	H	0.534871	0.269615	0.455868
407	H	0.589011	0.327128	0.43266
408	H	0.589007	0.266234	0.432663
409	C	0.623592	0.313961	0.673548
410	C	0.651823	0.369828	0.673704
411	C	0.70769	0.398061	0.673541
412	C	0.735327	0.369828	0.673697
413	C	0.707688	0.313961	0.673541
414	C	0.651821	0.286322	0.67367
415	H	0.775855	0.390091	0.674497
416	H	0.631557	0.245794	0.674487
417	H	0.631559	0.390092	0.674507
418	C	0.90238	0.203355	0.675535
419	C	0.874165	0.147485	0.675528
420	C	0.818293	0.119271	0.675528
421	C	0.79064	0.147486	0.675552
422	C	0.818294	0.203355	0.675542
423	C	0.874166	0.23101	0.675559
424	H	0.750099	0.127216	0.675301
425	H	0.894436	0.27155	0.675314
426	H	0.894436	0.127215	0.675281
427	C	0.790544	0.231109	0.008155
428	N	0.776824	0.244847	0.71442
429	C	0.749927	0.271739	0.716964
430	C	0.735451	0.286192	0.675711
431	N	0.749192	0.272427	0.969408
432	C	0.776006	0.245614	0.967367
433	H	0.785209	0.236395	0.936515
434	C	0.737296	0.284375	0.762177
435	H	0.752062	0.269619	0.7892
436	H	0.694541	0.266231	0.765995
437	H	0.75543	0.327128	0.765992
438	C	0.79054	0.063765	0.008145
439	N	0.776803	0.03631	0.714413
440	C	0.749911	0.482523	0.716957
441	C	0.735459	0.453592	0.675708
442	N	0.749224	0.481095	0.969405
443	C	0.776038	0.034719	0.96736
444	H	0.785258	0.053139	0.936505
445	C	0.737275	0.457258	0.762173
446	H	0.752029	0.486781	0.789197
447	H	0.755421	0.432649	0.765995
448	H	0.694521	0.432637	0.765988
449	C	0.957884	0.231109	0.008151
450	N	0.985339	0.244848	0.714417
451	C	0.539128	0.27174	0.716964
452	C	0.56806	0.286192	0.675715
453	N	0.540557	0.272425	0.969408
454	C	0.98693	0.245612	0.967364
455	H	0.968511	0.236393	0.936512
456	C	0.564395	0.284375	0.762177
457	H	0.534871	0.269615	0.7892
458	H	0.589011	0.327128	0.765992
459	H	0.589007	0.266234	0.765995
460	C	0.623593	0.813961	0.00688
461	C	0.651823	0.869829	0.007039
462	C	0.70769	0.898059	0.006876
463	C	0.735326	0.869829	0.007029
464	C	0.707689	0.813961	0.006876
465	C	0.651822	0.786324	0.007002
466	H	0.775855	0.890092	0.007829
467	H	0.631559	0.745797	0.007822
468	H	0.631559	0.890092	0.007843
469	C	0.902379	0.703356	0.008869
470	C	0.874166	0.647485	0.008861
471	C	0.818295	0.61927	0.008861
472	C	0.790641	0.647485	0.008884
473	C	0.818296	0.703356	0.008875
474	C	0.874164	0.731009	0.008893
475	H	0.750102	0.627217	0.008636
476	H	0.894436	0.771552	0.008646
477	H	0.894435	0.627217	0.008616
478	C	0.790542	0.731108	0.341487
479	N	0.776823	0.744848	0.047754
480	C	0.74993	0.771742	0.050295
481	C	0.735452	0.786193	0.009044
482	N	0.749193	0.772426	0.302741
483	C	0.776008	0.745615	0.3007
484	H	0.78521	0.736395	0.269847
485	C	0.737294	0.784374	0.095509
486	H	0.752063	0.769619	0.122533
487	H	0.694541	0.76623	0.099327
488	H	0.755428	0.827127	0.099323
489	C	0.790543	0.563766	0.341477
490	N	0.776801	0.536311	0.047746
491	C	0.749911	0.982525	0.05029
492	C	0.735458	0.953591	0.009042
493	N	0.749224	0.981094	0.302737
494	C	0.776037	0.534721	0.300692
495	H	0.785256	0.553138	0.269838
496	C	0.737277	0.95726	0.095506
497	H	0.752031	0.986783	0.122529
498	H	0.75542	0.932647	0.099326
499	H	0.694524	0.932639	0.09932
500	C	0.957886	0.731108	0.341484
501	N	0.985341	0.744848	0.047751
502	C	0.539129	0.771742	0.050295
503	C	0.568062	0.786193	0.009046
504	N	0.540557	0.772426	0.302741
505	C	0.986931	0.745611	0.300697
506	H	0.96851	0.736395	0.269844
507	C	0.564395	0.784374	0.09551
508	H	0.534871	0.769615	0.122533
509	H	0.589012	0.827127	0.099326
510	H	0.589008	0.766234	0.099328
511	C	0.623593	0.813961	0.340212
512	C	0.651823	0.869829	0.340372
513	C	0.70769	0.898059	0.340209
514	C	0.735326	0.869829	0.340362
515	C	0.707689	0.813961	0.340209
516	C	0.651822	0.786324	0.340334
517	H	0.775855	0.890092	0.341162
518	H	0.631559	0.745797	0.341155
519	H	0.631559	0.890092	0.341175
520	C	0.902379	0.703356	0.342203
521	C	0.874166	0.647485	0.342193
522	C	0.818295	0.61927	0.342193
523	C	0.790641	0.647485	0.342217
524	C	0.818296	0.703356	0.34221
525	C	0.874164	0.731009	0.342227
526	H	0.750102	0.627217	0.341969
527	H	0.894436	0.771552	0.341979
528	H	0.894435	0.627217	0.341949
529	C	0.790542	0.731108	0.674823
530	N	0.776823	0.744848	0.381088
531	C	0.74993	0.771742	0.383628
532	C	0.735452	0.786193	0.342379
533	N	0.749193	0.772426	0.636076
534	C	0.776008	0.745615	0.634035
535	H	0.78521	0.736395	0.60318
536	C	0.737294	0.784374	0.428841
537	H	0.752063	0.769619	0.455868
538	H	0.694541	0.76623	0.43266
539	H	0.755428	0.827127	0.432656
540	C	0.790543	0.563766	0.674813
541	N	0.776801	0.536311	0.381078
542	C	0.749911	0.982525	0.383625
543	C	0.735458	0.953591	0.342376
544	N	0.749224	0.981094	0.63607
545	C	0.776037	0.534721	0.634025
546	H	0.785256	0.553138	0.603173
547	C	0.737277	0.95726	0.428838
548	H	0.752031	0.986783	0.455861
549	H	0.75542	0.932647	0.43266
550	H	0.694524	0.932639	0.432653
551	C	0.957886	0.731108	0.674819
552	N	0.985341	0.744848	0.381085
553	C	0.539129	0.771742	0.383628
554	C	0.568062	0.786193	0.342379
555	N	0.540557	0.772426	0.636076
556	C	0.986931	0.745611	0.634032
557	H	0.96851	0.736395	0.603176
558	C	0.564395	0.784374	0.428845
559	H	0.534871	0.769615	0.455868
560	H	0.589012	0.827127	0.43266
561	H	0.589008	0.766234	0.432663
562	C	0.623593	0.813961	0.673548
563	C	0.651823	0.869829	0.673704
564	C	0.70769	0.898059	0.673541
565	C	0.735326	0.869829	0.673697
566	C	0.707689	0.813961	0.673541
567	C	0.651822	0.786324	0.67367
568	H	0.775855	0.890092	0.674497
569	H	0.631559	0.745797	0.674487
570	H	0.631559	0.890092	0.674507
571	C	0.902379	0.703356	0.675535
572	C	0.874166	0.647485	0.675528
573	C	0.818295	0.61927	0.675528
574	C	0.790641	0.647485	0.675552
575	C	0.818296	0.703356	0.675542
576	C	0.874164	0.731009	0.675559
577	H	0.750102	0.627217	0.675301
578	H	0.894436	0.771552	0.675314
579	H	0.894435	0.627217	0.675281
580	C	0.790542	0.731108	0.008155
581	N	0.776823	0.744848	0.71442
582	C	0.74993	0.771742	0.716964
583	C	0.735452	0.786193	0.675711
584	N	0.749193	0.772426	0.969408
585	C	0.776008	0.745615	0.967367
586	H	0.78521	0.736395	0.936515
587	C	0.737294	0.784374	0.762177
588	H	0.752063	0.769619	0.7892
589	H	0.694541	0.76623	0.765995
590	H	0.755428	0.827127	0.765992
591	C	0.790543	0.563766	0.008145
592	N	0.776801	0.536311	0.714413
593	C	0.749911	0.982525	0.716957
594	C	0.735458	0.953591	0.675708
595	N	0.749224	0.981094	0.969405
596	C	0.776037	0.534721	0.96736
597	H	0.785256	0.553138	0.936505
598	C	0.737277	0.95726	0.762173
599	H	0.752031	0.986783	0.789197
600	H	0.75542	0.932647	0.765995
601	H	0.694524	0.932639	0.765988
602	C	0.957886	0.731108	0.008151
603	N	0.985341	0.744848	0.714417
604	C	0.539129	0.771742	0.716964
605	C	0.568062	0.786193	0.675715
606	N	0.540557	0.772426	0.969408
607	C	0.986931	0.745611	0.967364
608	H	0.96851	0.736395	0.936512
609	C	0.564395	0.784374	0.762177
610	H	0.534871	0.769615	0.7892
611	H	0.589012	0.827127	0.765992
612	H	0.589008	0.766234	0.765995
